
 + + + + + + + + + + + + + + + + + + + + + + + + + + + + + + + + + + + + + + + +
 + + + + + + + + + + + + + + + + + + + + + + + + + + + + + + + + + + + + + + + +
 + +                                                                         + +
 + +                      ASPEN PLUS CALCULATION HISTORY                     + +
 + +                                                                         + +
 + + + + + + + + + + + + + + + + + + + + + + + + + + + + + + + + + + + + + + + +
 + + + + + + + + + + + + + + + + + + + + + + + + + + + + + + + + + + + + + + + +

 ASPEN PLUS IS A TRADEMARK OF           HOTLINE:
 ASPEN TECHNOLOGY, INC.                 U.S.A. 888/996-7100
 781/221-6400                           EUROPE (44) 1189-226555

 PLATFORM: WINDOWS                                       MARCH 17, 2020      
 VERSION: 36.0   Build 249                               TUESDAY     
 INSTALLATION:                                           2:52:47 P.M.        

 THIS COPY OF ASPEN PLUS LICENSED TO RENSSELAER POLYTECHNIC I        


      ASPEN PLUS (R) IS A PROPRIETARY PRODUCT OF ASPEN TECHNOLOGY, INC.
      (ASPENTECH), AND MAY BE USED ONLY UNDER AGREEMENT WITH ASPENTECH.
      RESTRICTED RIGHTS LEGEND:  USE, REPRODUCTION, OR DISCLOSURE BY THE
      U.S. GOVERNMENT IS SUBJECT TO RESTRICTIONS SET FORTH IN 
      (i) FAR 52.227-14, Alt. III, (ii) FAR 52.227-19, (iii) DFARS 
      252.227-7013(c)(1)(ii), or (iv) THE ACCOMPANYING LICENSE AGREEMENT,
      AS APPLICABLE. FOR PURPOSES OF THE FAR, THIS SOFTWARE SHALL BE DEEMED
      TO BE "UNPUBLISHED" AND LICENSED WITH DISCLOSURE PROHIBITIONS.
      CONTRACTOR/SUBCONTRACTOR: ASPEN TECHNOLOGY, INC. 20 CROSBY DRIVE,
      BEDFORD, MA 01730.
 *** INPUT SUMMARY ***

 >>CURRENT RUN

   ORIGINAL RUN                           MARCH 17, 2020      
   2:52:47 P.M.                           TUESDAY     
   INPUT FILE: _4512elu.inm
   RUN ID : _4512elu
          1    ;
          2    ;Input file created by Aspen Plus Rel. 36.0 at 14:52:45 Tue Mar 17, 2020
          3    ;Directory   Runid FULL DRAFT HEATXTWO-1_WITH_RECYCLE
          4    ;
          5
          6
          7    DYNAMICS
          8        DYNAMICS RESULTS=ON
          9
         10    IN-UNITS MET PRESSURE=bar TEMPERATURE=C DELTA-T=C PDROP=bar  &
         11            INVERSE-PRES='1/bar' SHORT-LENGTH=mm
         12
         13    DEF-STREAMS CONVEN ALL
         14
         15    MODEL-OPTION
         16
         17    DATABANKS 'APV100 PURE36' / 'APV100 AQUEOUS' / 'APV100 SOLIDS' &
         18             / 'APV100 INORGANIC' / 'APESV100 AP-EOS' /  &
         19            'NISTV100 NIST-TRC' / NOASPENPCD
         20
         21    PROP-SOURCES 'APV100 PURE36' / 'APV100 AQUEOUS' /  &
         22            'APV100 SOLIDS' / 'APV100 INORGANIC' / 'APESV100 AP-EOS' &
         23             / 'NISTV100 NIST-TRC'
         24
         25    COMPONENTS
         26        GLYCEROL C3H8O3 /
         27        TRIOL-01 C57H104O6 /
         28        TRILI-01 C57H98O6 /
         29        METHA-01 CH4O /
         30        METHY-01 C19H36O2 /
         31        METHY-02 C19H34O2 /
         32        UREA CH4N2O /
         33        CALCI-01 CAO /
         34        LANTH-01 LA2O3 /
         35        AMMON-01 H3N /
         36        GLYCE-01 C4H6O4-N1
         37
         38    CISOLID-COMPS CALCI-01 LANTH-01
         39
         40    SOLVE
         41        RUN-MODE MODE=SIM
         42
         43    FLOWSHEET
         44        BLOCK B4 IN=S6 OUT=S8 GLYCEROL
         45        BLOCK B3 IN=S5 OUT=S6 CATOUT
         46        BLOCK B1 IN=OILS METHANOL OUT=S4
         47        HIERARCHY B2
         48        CONNECT $C-1 IN=S16 OUT="B2.S4"
         49        CONNECT $C-3 IN=CAOIN OUT="B2.CATIN"
         50        CONNECT $C-2 IN="B2.S5" OUT=S5
         51        BLOCK B5 IN=S4 OUT=S1
         52        BLOCK B6 IN=S2 OUT=METHOUT BIOEXIN
         53        BLOCK B9 IN=GLYCEROL OUT=METHOUT2 S11
         54        BLOCK B8 IN=S10 OUT=S13
         55        BLOCK B12 IN=S13 OUT=S15 LAOOUT
         56        BLOCK B13 IN=S15 OUT=AMMONIA S17
         57        BLOCK B14 IN=S21 OUT=S18 GCHOT
         58        BLOCK B15 IN=S17 OUT=S21
         59        BLOCK HEATX1 IN=BIOEXIN S8 OUT=BIOEXOUT S2
         60        BLOCK B11 IN=LAOIN UREAIN S11 OUT=S9
         61        BLOCK HEATX2 IN=GCHOT S9 OUT=GCPROD S10
         62        BLOCK B7 IN=METHOUT2 OUT=S3 S7
         63        BLOCK B10 IN=S3 OUT=S12
         64        BLOCK B17 IN=S12 S1 OUT=S16
         65
         66    PROPERTIES SR-POLAR
         67        PROPERTIES IDEAL / NRTL
         68
         69    ESTIMATE ALL
         70
         71    PROP-DATA PCES-1
         72        IN-UNITS MET PRESSURE=bar TEMPERATURE=C DELTA-T=C PDROP=bar  &
         73            INVERSE-PRES='1/bar' SHORT-LENGTH=mm
         74        PROP-LIST OMEGA / DHVLB / VB / RGYR / RKTZRA / VLSTD
         75        PVAL UREA .5992461800 / 20985.95586 / 48.82570000 /  &
         76            2.6000000E-10 / .2351731880 / 48.82570000
         77        PROP-LIST RKTZRA / VLSTD
         78        PVAL CALCI-01 .2918596200 / 298.9063450
         79        PVAL GLYCE-01 .2037543860 / 69.23640000
         80
         81    PROP-DATA DHVLWT-1
         82        IN-UNITS MET PRESSURE=bar TEMPERATURE=C DELTA-T=C PDROP=bar  &
         83            INVERSE-PRES='1/bar' SHORT-LENGTH=mm
         84        PROP-LIST DHVLWT
         85        PVAL CALCI-01 5.38817025E+5 3396.850000 .3800000000 0.0  &
         86            3396.850000
         87
         88    PROP-DATA KLDIP-1
         89        IN-UNITS MET PRESSURE=bar TEMPERATURE=C DELTA-T=C PDROP=bar  &
         90            INVERSE-PRES='1/bar' SHORT-LENGTH=mm
         91        PROP-LIST KLDIP
         92        PVAL UREA .0494897448 1.57543997E-3 -1.0085909E-5  &
         93            2.44404255E-8 -2.254923E-11 191.8500000 424.8000000
         94        PVAL CALCI-01 -.6218197112 7.78300188E-4 -2.8775749E-7  &
         95            4.5627261E-11 -2.727830E-15 3396.850000 5686.650000
         96
         97    PROP-DATA MULAND-1
         98        IN-UNITS MET PRESSURE=bar TEMPERATURE=C DELTA-T=C PDROP=bar  &
         99            INVERSE-PRES='1/bar' SHORT-LENGTH=mm
        100        PROP-LIST MULAND
        101        PVAL UREA 129.3349773 -7951.576030 -18.41338230 191.8500000  &
        102            424.8000000
        103        PVAL CALCI-01 81.01615608 -12127.32210 -10.25255770  &
        104            1126.850000 1706.850000
        105
        106    PROP-DATA PLXANT-1
        107        IN-UNITS MET PRESSURE=bar TEMPERATURE=C DELTA-T=C PDROP=bar  &
        108            INVERSE-PRES='1/bar' SHORT-LENGTH=mm
        109        PROP-LIST PLXANT
        110        PVAL UREA 77.19179774 -10639.35530 0.0 0.0 -8.846083610  &
        111            3.4142003E-18 6.000000000 191.8500000 431.8500000
        112
        113    PROP-DATA SIGDIP-1
        114        IN-UNITS MET PRESSURE=bar TEMPERATURE=C DELTA-T=C PDROP=bar  &
        115            INVERSE-PRES='1/bar' SHORT-LENGTH=mm
        116        PROP-LIST SIGDIP
        117        PVAL UREA 156.7709600 1.222222220 5.9537296E-10  &
        118            -6.635066E-10 2.6632382E-10 191.8500000 417.7500000
        119        PVAL GLYCE-01 156.3532160 1.222222220 5.9089352E-10  &
        120            -6.640628E-10 2.6313812E-10 323.7990000 543.1900000
        121        PVAL CALCI-01 139.2135830 1.222222220 -2.171954E-10  &
        122            2.3955375E-10 -9.673330E-11 3396.850000 5626.450000
        123
        124    PROP-DATA HOCETA-1
        125        IN-UNITS MET PRESSURE=bar TEMPERATURE=C DELTA-T=C PDROP=bar  &
        126            INVERSE-PRES='1/bar' SHORT-LENGTH=mm
        127        PROP-LIST HOCETA
        128        BPVAL METHA-01 METHA-01 1.630000000
        129        BPVAL METHA-01 AMMON-01 .2000000000
        130        BPVAL AMMON-01 METHA-01 .2000000000
        131
        132    PROP-DATA NRTL-1
        133        IN-UNITS MET PRESSURE=bar TEMPERATURE=C DELTA-T=C PDROP=bar  &
        134            INVERSE-PRES='1/bar' SHORT-LENGTH=mm
        135        PROP-LIST NRTL
        136        BPVAL GLYCEROL METHA-01 0.0 -218.5217000 .3000000000 0.0  &
        137            0.0 0.0 25.00000000 62.50000000
        138        BPVAL METHA-01 GLYCEROL 0.0 547.8301000 .3000000000 0.0  &
        139            0.0 0.0 25.00000000 62.50000000
        140
        141    STREAM CAOIN
        142        SUBSTREAM MIXED TEMP=25. PRES=1. MOLE-FLOW=66. <mol/hr>
        143        MOLE-FRAC CALCI-01 1.
        144
        145    STREAM LAOIN
        146        SUBSTREAM MIXED TEMP=25. PRES=1. MASS-FLOW=2.
        147        MOLE-FRAC LANTH-01 1.
        148
        149    STREAM METHANOL
        150        SUBSTREAM MIXED TEMP=25. PRES=5. MOLE-FLOW=19800. <mol/hr>
        151        MOLE-FRAC METHA-01 1.
        152
        153    STREAM OILS
        154        SUBSTREAM MIXED TEMP=25. PRES=5. MOLE-FLOW=2200. <mol/hr>
        155        MOLE-FRAC TRIOL-01 0.6 / TRILI-01 0.4
        156
        157    STREAM UREAIN
        158        SUBSTREAM MIXED TEMP=25. PRES=1. MASS-FLOW=109.
        159        MOLE-FRAC UREA 1.
        160
        161    BLOCK B1 MIXER
        162        PARAM PRES=1. NPHASE=1 PHASE=L TOL=0.01 T-EST=25.
        163        PROPERTIES IDEAL FREE-WATER=STEAM-TA SOLU-WATER=3  &
        164            TRUE-COMPS=YES
        165        BLOCK-OPTION FREE-WATER=NO
        166
        167    BLOCK B11 MIXER
        168        PARAM PRES=1.
        169
        170    BLOCK B17 MIXER
        171        PARAM PRES=1. NPHASE=1 PHASE=L
        172        BLOCK-OPTION FREE-WATER=NO
        173
        174    BLOCK B7 FSPLIT
        175        FRAC S3 0.1
        176
        177    BLOCK B5 HEATER
        178        PARAM TEMP=65. PRES=1. NPHASE=1 PHASE=L DPPARMOPT=NO
        179        BLOCK-OPTION FREE-WATER=NO
        180
        181    BLOCK B10 HEATER
        182        PARAM TEMP=65. PRES=1. DPPARMOPT=NO
        183
        184    BLOCK B9 FLASH2
        185        PARAM TEMP=100. PRES=0.2 MAXIT=30
        186        PROPERTIES SR-POLAR FREE-WATER=STEAM-TA SOLU-WATER=3  &
        187            TRUE-COMPS=YES
        188
        189    BLOCK B13 FLASH2
        190        PARAM PRES=0.5 DUTY=0.
        191
        192    BLOCK B4 DECANTER
        193        PARAM TEMP=65. PRES=1. LL-METH=EQ-SOLVE L2-COMPS=METHA-01  &
        194            L2-CUTOFF=0.5 MAXIT=30
        195
        196    BLOCK HEATX1 HEATX
        197        PARAM T-COLD=105.
        198        FEEDS HOT=BIOEXIN COLD=S8
        199        OUTLETS-HOT BIOEXOUT
        200        OUTLETS-COLD S2
        201        PROPERTIES NRTL FREE-WATER=STEAM-TA SOLU-WATER=3  &
        202            TRUE-COMPS=YES / NRTL FREE-WATER=STEAM-TA SOLU-WATER=3  &
        203            TRUE-COMPS=YES
        204        HOT-SIDE DPPARMOPT=NO
        205        COLD-SIDE DPPARMOPT=NO
        206        TQ-PARAM CURVE=YES
        207
        208    BLOCK HEATX2 HEATX
        209        PARAM T-COLD=140.
        210        FEEDS HOT=GCHOT COLD=S9
        211        OUTLETS-HOT GCPROD
        212        OUTLETS-COLD S10
        213        HOT-SIDE DPPARMOPT=NO
        214        COLD-SIDE DPPARMOPT=NO
        215        TQ-PARAM CURVE=YES
        216
        217    BLOCK B6 RADFRAC
        218        PARAM NSTAGE=3 ALGORITHM=NONIDEAL INIT-OPTION=STANDARD  &
        219            MAXOL=200 DAMPING=NONE
        220        COL-CONFIG CONDENSER=PARTIAL-V
        221        FEEDS S2 2 ABOVE-STAGE
        222        PRODUCTS BIOEXIN 3 L / METHOUT 1 V
        223        P-SPEC 1 1. / 2 1.
        224        COL-SPECS MASS-D:F=0.17 MASS-RR=3.
        225        DB:F-PARAMS STREAMS=S2
        226        PROPERTIES IDEAL FREE-WATER=STEAM-TA SOLU-WATER=3  &
        227            TRUE-COMPS=YES
        228
        229    BLOCK B14 RADFRAC
        230        PARAM NSTAGE=16 ALGORITHM=STANDARD MAXOL=25 DAMPING=NONE
        231        COL-CONFIG CONDENSER=PARTIAL-V
        232        FEEDS S21 10
        233        PRODUCTS S18 1 V / GCHOT 16 L
        234        P-SPEC 1 1.
        235        COL-SPECS MASS-D:F=0.18 MOLE-RR=3.
        236
        237    BLOCK B8 RSTOIC
        238        PARAM TEMP=140. PRES=3. <kPa>
        239        STOIC 1 MIXED GLYCEROL -1. / UREA -1. / AMMON-01 2. /  &
        240            GLYCE-01 1.
        241        CONV 1 MIXED GLYCEROL 0.85
        242
        243    HIERARCHY B2
        244
        245
        246    DEF-STREAMS CONVEN ALL
        247
        248    SOLVE
        249        PARAM METHOD=SM PROCESS=BATCH
        250        RUN-MODE MODE=SIM
        251
        252    FLOWSHEET
        253        BLOCK B1 IN=S1 OUT=S5
        254        BLOCK B2 IN=S4 CATIN OUT=S1
        255
        256    PROPERTIES SR-POLAR FREE-WATER=STEAM-TA SOLU-WATER=3  &
        257            TRUE-COMPS=YES
        258        PROPERTIES IDEAL / NRTL
        259
        260    BLOCK B2 MIXER
        261        PARAM PRES=1. NPHASE=1 PHASE=L
        262        PROPERTIES SR-POLAR FREE-WATER=STEAM-TA SOLU-WATER=3  &
        263            TRUE-COMPS=YES
        264        BLOCK-OPTION FREE-WATER=NO
        265
        266    BLOCK B1 BATCHOP
        267        PARAM TYPE=T-SPEC PRES=1. TEMP=65. NPHASE=1 PHASE=L
        268        INIT-COND FEED-TIME=1.
        269        DISCHARGE DISCHARGE-T=1.
        270        REACTIONS RXN-IDS=R-1 R-2
        271        BLOCK-OPTION FREE-WATER=NO
        272
        273    EO-CONV-OPTI
        274
        275    BATCH-OPTS
        276        PARAM MAX-TIME=6. OUTPUT-INT=0.05
        277
        278    ENDHIERARCHY B2
        279
        280    BLOCK B15 PUMP
        281        PARAM DELP=0.5
        282
        283    BLOCK B3 CFUGE
        284        PARAM TYPE=SOLIDS-SEP NPHASE=2 PRES=1. DELT=0.
        285        SOLIDS-SEP SOLID-SPLIT=1. FLUID-SPLIT=1.
        286        PROPERTIES NRTL FREE-WATER=STEAM-TA SOLU-WATER=3  &
        287            TRUE-COMPS=YES
        288
        289    BLOCK B12 CFUGE
        290        PARAM TYPE=SOLIDS-SEP NPHASE=2 PRES=1.
        291        SOLIDS-SEP SOLID-SPLIT=1. FLUID-SPLIT=1.
        292
        293    EO-CONV-OPTI
        294
        295    STREAM-REPOR MOLEFLOW
        296
        297    PROPERTY-REP PCES
        298
        299    REACTIONS R-1 LHHW
        300        REAC-DATA 1
        301        RATE-CON 1 PRE-EXP=0.07 ACT-ENERGY=16.6 <kJ/mol>
        302        STOIC 1 MIXED TRIOL-01 -1. / METHA-01 -3. / METHY-01 3. / &
        303            GLYCEROL 1.
        304        DFORCE-EXP-1 1 MIXED TRIOL-01 1. / MIXED METHA-01 0. /  &
        305            MIXED METHY-01 0. / MIXED GLYCEROL 0.
        306        DFORCE-EQ-1 REACNO=1 A=0.
        307        DFORCE-EQ-2 REACNO=1 A=-52.95
        308
        309    REACTIONS R-2 LHHW
        310        REAC-DATA 1
        311        RATE-CON 1 PRE-EXP=0.07 ACT-ENERGY=16.6 <kJ/mol>
        312        STOIC 1 MIXED TRILI-01 -1. / METHA-01 -3. / GLYCEROL 1. / &
        313            METHY-02 3.
        314        DFORCE-EXP-1 1 MIXED TRILI-01 1. / MIXED METHA-01 0. /  &
        315            MIXED GLYCEROL 0. / MIXED METHY-02 0.
        316        DFORCE-EQ-1 REACNO=1 A=0.
        317        DFORCE-EQ-2 REACNO=1 A=-52.95
        318
        319    PROP-TABLE BINRY-2 PROPS
        320        IN-UNITS MET PRESSURE=bar TEMPERATURE=C DELTA-T=C PDROP=bar  &
        321            INVERSE-PRES='1/bar' SHORT-LENGTH=mm
        322        ANALYSIS ANAL-TYPE=GIBBS UNITS='cal/mol'
        323        PROPERTIES SR-POLAR FREE-WATER=STEAM-TA SOLU-WATER=3  &
        324            TRUE-COMPS=YES
        325        MOLE-FLOW GLYCEROL 1 /  METHY-01  1
        326        STATE PRES=1.
        327        VARY TEMP
        328        RANGE LIST=40.
        329        VARY MOLEFRAC COMP=GLYCEROL
        330        RANGE VARVALUE=RANGE LOWER=0.0 UPPER=1.0 NPOINT=50
        331        PARAM NPHASE=3
        332    ;
        333    ;
        334    ;
        335    ;
        336    ;
Added container block B2
 *** INPUT TRANSLATOR MESSAGES ***

  *** THIS RUN USES THE PROPERTIES ENTERPRISE DATABASE ***
      SQLLOCALDB.APESV100 : (DATAVERSION - 36.0.0.1)                          
      SQLLOCALDB.APV100 : (DATAVERSION - 36.0.0.21)                           
      SQLLOCALDB.FACTV100 : (DATAVERSION - 36.0.0.1)                          
      SQLLOCALDB.NISTV100 : (DATAVERSION - 36.0.0.15)                         

      INFORMATION IN PHYSICAL PROPERTY SYSTEM                  (PCERTE.10)      
      STRUCTURE FOR COMPONENT TRILI-01 HAS NOT BEEN DEFINED.                    
      PCES CANNOT USE GROUP-CONTRIBUTION METHODS TO ESTIMATE MISSING PROPERTIES.
      USE THE STRUCTURES PARAGRAPH TO DEFINE STRUCTURES OF THIS COMPONENT.      

      INFORMATION IN PHYSICAL PROPERTY SYSTEM                  (PCERTE.10)      
      STRUCTURE FOR COMPONENT UREA HAS NOT BEEN DEFINED.                        
      PCES CANNOT USE GROUP-CONTRIBUTION METHODS TO ESTIMATE MISSING PROPERTIES.
      USE THE STRUCTURES PARAGRAPH TO DEFINE STRUCTURES OF THIS COMPONENT.      

      INFORMATION IN PHYSICAL PROPERTY SYSTEM                  (PCERTE.10)      
      STRUCTURE FOR COMPONENT CALCI-01 HAS NOT BEEN DEFINED.                    
      PCES CANNOT USE GROUP-CONTRIBUTION METHODS TO ESTIMATE MISSING PROPERTIES.
      USE THE STRUCTURES PARAGRAPH TO DEFINE STRUCTURES OF THIS COMPONENT.      

      INFORMATION IN PHYSICAL PROPERTY SYSTEM                  (PCERTE.10)      
      STRUCTURE FOR COMPONENT LANTH-01 HAS NOT BEEN DEFINED.                    
      PCES CANNOT USE GROUP-CONTRIBUTION METHODS TO ESTIMATE MISSING PROPERTIES.
      USE THE STRUCTURES PARAGRAPH TO DEFINE STRUCTURES OF THIS COMPONENT.      

      INFORMATION IN PHYSICAL PROPERTY SYSTEM                  (PCERTE.10)      
      STRUCTURE FOR COMPONENT GLYCE-01 HAS NOT BEEN DEFINED.                    
      PCES CANNOT USE GROUP-CONTRIBUTION METHODS TO ESTIMATE MISSING PROPERTIES.
      USE THE STRUCTURES PARAGRAPH TO DEFINE STRUCTURES OF THIS COMPONENT.      

      INFORMATION IN PHYSICAL PROPERTY SYSTEM                  (LOADMW.5)       
      MW AVAILABLE FOR COMPONENT TRILI-01 IS DIFFERENT FROM MW                  
      CALCULATED FROM FORMULA (ATOMNO/NOATOM).  CALCULATED VALUE IS USED.       
      AVAILABLE MW =   879.3840     CALCULATED MW =   879.4015                  

  *   WARNING IN PHYSICAL PROPERTY SYSTEM                      (LCLIMS.4)       
      PARAMETER DHVLWT/ELEMENT  1 (DATA SET 1)                                  
      UPPER BOUND VIOLATED FOR COMPONENT CALCI-01                               
      VALUE =  0.22559E+10, UPPER BOUND =  0.60000E+09                          

  *   WARNING IN PHYSICAL PROPERTY SYSTEM                      (LCLIMS.4)       
      PARAMETER DHVLWT/ELEMENT  5 (DATA SET 1)                                  
      UPPER BOUND VIOLATED FOR COMPONENT CALCI-01                               
      VALUE =   3670.0    , UPPER BOUND =   1500.0                              

  *   WARNING WHILE CHECKING INPUT SPECIFICATIONS              (PRPCHK.1)       
      INCONSISTENT PROPERTIES DETECTED FOR 6 STREAMS                            
      SOURCE BLOCK        PROPERTIES STREAM   DESTINATION BLOCK   PROPERTIES    
      =================== ========== ======== =================== ==========    
      B3                  NRTL       S6       B4                  SR-POLAR      
      B2.B1               SR-POLAR   S5       B3                  NRTL          
      B1                  IDEAL      S4       B5                  SR-POLAR      
      HEATX1              NRTL       S2       B6                  IDEAL         
      B6                  IDEAL      BIOEXIN  HEATX1              NRTL          
      B4                  SR-POLAR   S8       HEATX1              NRTL          
 
 

 PDF updated                                                                      TIME =      8.39


 THE FOLLOWING PURE COMPONENT PARAMETERS ARE ESTIMATED FOR MODEL ESRKU:


 COMPONENT GLYCEROL
      POLAR PARAMETER RKUPP0 =    -0.065662
                      RKUPP1 =     3.433459
                      RKUPP2 =    -6.929989

 COMPONENT TRIOL-01
      POLAR PARAMETER RKUPP0 =     4.099804
                      RKUPP1 =    -3.004889
                      RKUPP2 =     2.162829

 COMPONENT TRILI-01
      POLAR PARAMETER RKUPP0 =     4.075085
                      RKUPP1 =    -3.003402
                      RKUPP2 =     2.160700

 COMPONENT METHA-01
      POLAR PARAMETER RKUPP0 =     0.162227
                      RKUPP1 =    -1.430134
                      RKUPP2 =     0.008900

 COMPONENT METHY-01
      POLAR PARAMETER RKUPP0 =    -0.028342
                      RKUPP1 =   -11.709490
                      RKUPP2 =    14.975620

 COMPONENT METHY-02
      POLAR PARAMETER RKUPP0 =     0.959016
                      RKUPP1 =    -2.964248
                      RKUPP2 =     2.123185

 COMPONENT UREA    
      POLAR PARAMETER RKUPP0 =    -0.323045
                      RKUPP1 =    -2.966432
                      RKUPP2 =     2.198500

 COMPONENT CALCI-01
      POLAR PARAMETER RKUPP0 =     0.711866
                      RKUPP1 =    -4.328770
                      RKUPP2 =    -5.480186

 COMPONENT LANTH-01
      POLAR PARAMETER RKUPP0 =     0.000000
                      RKUPP1 =     0.000000
                      RKUPP2 =     0.000000

 COMPONENT AMMON-01
      POLAR PARAMETER RKUPP0 =     0.036832
                      RKUPP1 =    -0.837919
                      RKUPP2 =    -0.809507

 COMPONENT GLYCE-01
      POLAR PARAMETER RKUPP0 =     0.000000
                      RKUPP1 =     0.000000
                      RKUPP2 =     0.000000

 THE FOLLOWING BINARY-INTERACTION PARAMETERS ARE ESTIMATED FOR MODEL ESRKU:


 BINARY GLYCEROL - TRIOL-01

      INTERACTION PARAMETERS NOT PREDICTED BECAUSE UNIFAC GENERATES VERY LOW OR HIGH PRESSURE DATA

 BINARY GLYCEROL - TRILI-01

      INTERACTION PARAMETERS NOT PREDICTED BECAUSE UNIFAC GROUP PARAMETERS ARE MISSING

 BINARY GLYCEROL - METHA-01
      RKUKA0 =   -0.121950    
      RKUKA2 =     23.8381    
      RKULA0 =    0.341113E-01
      RKULA2 =    -10.0315    

      FOR     298.15 (K) <= T <=    318.15 (K)


 BINARY GLYCEROL - METHY-01

      INTERACTION PARAMETERS NOT PREDICTED BECAUSE UNIFAC GENERATES VERY LOW OR HIGH PRESSURE DATA

 BINARY GLYCEROL - METHY-02

      INTERACTION PARAMETERS NOT PREDICTED BECAUSE UNIFAC GENERATES VERY LOW OR HIGH PRESSURE DATA

 BINARY GLYCEROL - UREA    

      INTERACTION PARAMETERS NOT PREDICTED BECAUSE UNIFAC GROUP PARAMETERS ARE MISSING

 BINARY GLYCEROL - CALCI-01

      INTERACTION PARAMETERS NOT PREDICTED BECAUSE UNIFAC GROUP PARAMETERS ARE MISSING

 BINARY GLYCEROL - LANTH-01

      INTERACTION PARAMETERS CANNOT BE PREDICTED USING UNIFAC

 BINARY GLYCEROL - GLYCE-01

      INTERACTION PARAMETERS NOT PREDICTED BECAUSE UNIFAC GROUP PARAMETERS ARE MISSING

 BINARY TRIOL-01 - TRILI-01

      INTERACTION PARAMETERS NOT PREDICTED BECAUSE UNIFAC GROUP PARAMETERS ARE MISSING

 BINARY TRIOL-01 - METHA-01

      INTERACTION PARAMETERS NOT PREDICTED BECAUSE UNIFAC GENERATES VERY LOW OR HIGH PRESSURE DATA

 BINARY TRIOL-01 - METHY-01

      INTERACTION PARAMETERS NOT PREDICTED BECAUSE UNIFAC GENERATES VERY LOW OR HIGH PRESSURE DATA

 BINARY TRIOL-01 - METHY-02

      INTERACTION PARAMETERS NOT PREDICTED BECAUSE UNIFAC GENERATES VERY LOW OR HIGH PRESSURE DATA

 BINARY TRIOL-01 - UREA    

      INTERACTION PARAMETERS NOT PREDICTED BECAUSE UNIFAC GROUP PARAMETERS ARE MISSING

 BINARY TRIOL-01 - CALCI-01

      INTERACTION PARAMETERS NOT PREDICTED BECAUSE UNIFAC GROUP PARAMETERS ARE MISSING

 BINARY TRIOL-01 - LANTH-01

      INTERACTION PARAMETERS NOT PREDICTED BECAUSE UNIFAC GROUP PARAMETERS ARE MISSING

 BINARY TRIOL-01 - GLYCE-01

      INTERACTION PARAMETERS NOT PREDICTED BECAUSE UNIFAC GROUP PARAMETERS ARE MISSING

 BINARY TRILI-01 - METHA-01

      INTERACTION PARAMETERS NOT PREDICTED BECAUSE UNIFAC GROUP PARAMETERS ARE MISSING

 BINARY TRILI-01 - METHY-01

      INTERACTION PARAMETERS NOT PREDICTED BECAUSE UNIFAC GROUP PARAMETERS ARE MISSING

 BINARY TRILI-01 - METHY-02

      INTERACTION PARAMETERS NOT PREDICTED BECAUSE UNIFAC GROUP PARAMETERS ARE MISSING

 BINARY TRILI-01 - UREA    

      INTERACTION PARAMETERS NOT PREDICTED BECAUSE UNIFAC GROUP PARAMETERS ARE MISSING

 BINARY TRILI-01 - CALCI-01

      INTERACTION PARAMETERS NOT PREDICTED BECAUSE UNIFAC GROUP PARAMETERS ARE MISSING

 BINARY TRILI-01 - LANTH-01

      INTERACTION PARAMETERS NOT PREDICTED BECAUSE UNIFAC GROUP PARAMETERS ARE MISSING

 BINARY TRILI-01 - GLYCE-01

      INTERACTION PARAMETERS NOT PREDICTED BECAUSE UNIFAC GROUP PARAMETERS ARE MISSING

 BINARY METHA-01 - METHY-01
      RKUKA0 =   -0.597541E-01
      RKUKA2 =     2.71431    
      RKULA0 =   -0.139340E-01
      RKULA2 =    -11.3968    

      FOR     298.15 (K) <= T <=    318.15 (K)


 BINARY METHA-01 - METHY-02
      RKUKA0 =    0.153105E-01
      RKUKA2 =    -25.2241    
      RKULA0 =   -0.182201E-02
      RKULA2 =    -16.6520    

      FOR     298.15 (K) <= T <=    318.15 (K)


 BINARY METHA-01 - UREA    

      INTERACTION PARAMETERS NOT PREDICTED BECAUSE UNIFAC GROUP PARAMETERS ARE MISSING

 BINARY METHA-01 - CALCI-01

      INTERACTION PARAMETERS NOT PREDICTED BECAUSE UNIFAC GROUP PARAMETERS ARE MISSING

 BINARY METHA-01 - LANTH-01

      INTERACTION PARAMETERS CANNOT BE PREDICTED USING UNIFAC

 BINARY METHA-01 - GLYCE-01

      INTERACTION PARAMETERS NOT PREDICTED BECAUSE UNIFAC GROUP PARAMETERS ARE MISSING

 BINARY METHY-01 - METHY-02

      INTERACTION PARAMETERS NOT PREDICTED BECAUSE UNIFAC GENERATES VERY LOW OR HIGH PRESSURE DATA

 BINARY METHY-01 - UREA    

      INTERACTION PARAMETERS NOT PREDICTED BECAUSE UNIFAC GROUP PARAMETERS ARE MISSING

 BINARY METHY-01 - CALCI-01

      INTERACTION PARAMETERS NOT PREDICTED BECAUSE UNIFAC GROUP PARAMETERS ARE MISSING

 BINARY METHY-01 - LANTH-01

      INTERACTION PARAMETERS NOT PREDICTED BECAUSE UNIFAC GROUP PARAMETERS ARE MISSING

 BINARY METHY-01 - GLYCE-01

      INTERACTION PARAMETERS NOT PREDICTED BECAUSE UNIFAC GROUP PARAMETERS ARE MISSING

 BINARY METHY-02 - UREA    

      INTERACTION PARAMETERS NOT PREDICTED BECAUSE UNIFAC GROUP PARAMETERS ARE MISSING

 BINARY METHY-02 - CALCI-01

      INTERACTION PARAMETERS NOT PREDICTED BECAUSE UNIFAC GROUP PARAMETERS ARE MISSING

 BINARY METHY-02 - LANTH-01

      INTERACTION PARAMETERS NOT PREDICTED BECAUSE UNIFAC GROUP PARAMETERS ARE MISSING

 BINARY METHY-02 - GLYCE-01

      INTERACTION PARAMETERS NOT PREDICTED BECAUSE UNIFAC GROUP PARAMETERS ARE MISSING

 BINARY UREA     - CALCI-01

      INTERACTION PARAMETERS NOT PREDICTED BECAUSE UNIFAC GROUP PARAMETERS ARE MISSING

 BINARY UREA     - LANTH-01

      INTERACTION PARAMETERS CANNOT BE PREDICTED USING UNIFAC

 BINARY UREA     - GLYCE-01

      INTERACTION PARAMETERS NOT PREDICTED BECAUSE UNIFAC GROUP PARAMETERS ARE MISSING

 BINARY CALCI-01 - LANTH-01

      INTERACTION PARAMETERS CANNOT BE PREDICTED USING UNIFAC

 BINARY CALCI-01 - GLYCE-01

      INTERACTION PARAMETERS NOT PREDICTED BECAUSE UNIFAC GROUP PARAMETERS ARE MISSING

 BINARY LANTH-01 - GLYCE-01

      INTERACTION PARAMETERS CANNOT BE PREDICTED USING UNIFAC

 *** CALCULATION TRACE ***


 *** FLOWSHEET ANALYSIS MESSAGES ***

 FLOWSHEET CONNECTIVITY BY STREAMS       

 FLOWSHEET SECTION GLOBAL  
   STREAM     SOURCE     DEST           STREAM     SOURCE     DEST
   METHANOL   ----       B1             OILS       ----       B1      
   CAOIN      ----       $C-3           UREAIN     ----       B11     
   LAOIN      ----       B11            S8         B4         HEATX1  
   GLYCEROL   B4         B9             S6         B3         B4      
   CATOUT     B3         ----           S4         B1         B5      
   S5         $C-2       B3             S1         B5         B17     
   METHOUT    B6         ----           BIOEXIN    B6         HEATX1  
   METHOUT2   B9         B7             S11        B9         B11     
   S13        B8         B12            S15        B12        B13     
   LAOOUT     B12        ----           AMMONIA    B13        ----    
   S17        B13        B15            S18        B14        ----    
   GCHOT      B14        HEATX2         S21        B15        B14     
   BIOEXOUT   HEATX1     ----           S2         HEATX1     B6      
   S9         B11        HEATX2         GCPROD     HEATX2     ----    
   S10        HEATX2     B8             S3         B7         B10     
   S7         B7         ----           S12        B10        B17     
   S16        B17        $C-1                                         

 FLOWSHEET CONNECTIVITY BY BLOCKS        

 FLOWSHEET SECTION GLOBAL  
   BLOCK        INLETS                         OUTLETS
   B4           S6                             S8 GLYCEROL                 
   B3           S5                             S6 CATOUT                   
   B1           OILS METHANOL                  S4                          
   $C-1         S16                            S4                          
   $C-3         CAOIN                          CATIN                       
   $C-2         S5                             S5                          
   B5           S4                             S1                          
   B6           S2                             METHOUT BIOEXIN             
   B9           GLYCEROL                       METHOUT2 S11                
   B8           S10                            S13                         
   B12          S13                            S15 LAOOUT                  
   B13          S15                            AMMONIA S17                 
   B14          S21                            S18 GCHOT                   
   B15          S17                            S21                         
   HEATX1       BIOEXIN S8                     BIOEXOUT S2                 
   B11          LAOIN UREAIN S11               S9                          
   HEATX2       GCHOT S9                       GCPROD S10                  
   B7           METHOUT2                       S3 S7                       
   B10          S3                             S12                         
   B17          S12 S1                         S16                         

      BATCH CONVERGENCE BLOCK $BASVR01 HAS BEEN DEFINED

      BLOCK $OLVER02 (METHOD: WEGSTEIN) HAS BEEN DEFINED TO CONVERGE
               STREAMS: S5

      BLOCK $OLVER03 (METHOD: WEGSTEIN) HAS BEEN DEFINED TO CONVERGE
               STREAMS: BIOEXIN

      BLOCK $OLVER04 (METHOD: WEGSTEIN) HAS BEEN DEFINED TO CONVERGE
               STREAMS: GCHOT

      COMPUTATION ORDER FOR THE FLOWSHEET IS:
      $C-3 B1 B5 
      $OLVER02 B3 B4 B9 B7 B10 B17 $C-1 
      |  B2.$BASVR01 B2.B2 B2.B1 
      |  (RETURN B2.$BASVR01) 
      |  $C-2 
      (RETURN $OLVER02) 
      $OLVER03 HEATX1 B6 
      (RETURN $OLVER03) 
      B11 
      $OLVER04 HEATX2 B8 B12 B13 B15 B14 
      (RETURN $OLVER04) 

Calculations begin                                                              time      0.32


 SIMULATION CALCULATIONS BEGIN                                                    TIME =      0.32

      ENTHALPY CALCULATION FOR INLET STREAM CAOIN OF BLOCK $C-3                   TIME =      0.32
      KODE = 2   NO. TEMP ITER =    1     TEMP =  298.150    
      KPHASE =    3 KODE =    2 T =  298.150     P =  100000.     Q =  0.00000    

      UOS BLOCK $C-3     MODEL: DUPL                                              TIME =      0.33

      ENTHALPY CALCULATION FOR INLET STREAM OILS OF BLOCK B1                      TIME =      0.33
      KODE = 2  NTRIAL =   3  T = 298.1500  P =  500000.      V =  0.00000      Q =  0.00000    

      ENTHALPY CALCULATION FOR INLET STREAM METHANOL OF BLOCK B1                  TIME =      0.34
      KODE = 2  NTRIAL =   1  T = 298.1500  P =  500000.      V =  0.00000      Q =  0.00000    

      UOS BLOCK B1       MODEL: MIXER                                             TIME =      0.34
      KODE = 1   NO. TEMP ITER =    1     TEMP =  298.150    
      KPHASE =    2 KODE =    1 T =  298.150     P =  100000.     Q =  0.00000    

      UOS BLOCK B5       MODEL: HEATER                                            TIME =      0.34
      KODE = 2   NO. TEMP ITER =    1     TEMP =  338.150    
      KPHASE =    2 KODE =    2 T =  338.150     P =  100000.     Q =  308053.    

      CONVERGENCE BLOCK $OLVER02  METHOD: WEGSTEIN                                TIME =      0.34
      ITER   0 For Tear Streams: S5

      UOS BLOCK B3       MODEL: CFUGE                                             TIME =      0.34

  **  ERROR WHILE EXECUTING UNIT OPERATIONS BLOCK: "B3" (MODEL: "CFUGE")        
                                                               (SSTATE.10)      
      UNABLE TO CALCULATE FLASH.                                                

  **  ERROR WHILE EXECUTING UNIT OPERATIONS BLOCK: "B3" (MODEL: "CFUGE")        
                                                               (SEPBASE.2)      
      FLASH CALCULATION OF OUTLETS FAILED.                                      
        
      ABORTING CALCULATION DUE TO ERRORS. OUTLET STREAMS SET TO FALLBACK MODE!  

      UOS BLOCK B4       MODEL: DECANTER                                          TIME =      0.35

  *   WARNING WHILE EXECUTING UNIT OPERATIONS BLOCK: "B4" (MODEL: "DECANTER")   
                                                               (UFL03I.1)       
      ZERO TOTAL FEED FLOW TO BLOCK.                                            

      UOS BLOCK B9       MODEL: FLASH2                                            TIME =      0.35

  *   WARNING WHILE EXECUTING UNIT OPERATIONS BLOCK: "B9" (MODEL: "FLASH2")     
                                                               (UFL01I.1)       
      ZERO FEED TO THE BLOCK.  BLOCK BYPASSED                                   

      UOS BLOCK B7       MODEL: FSPLIT                                            TIME =      0.35

  *   WARNING WHILE EXECUTING UNIT OPERATIONS BLOCK: "B7" (MODEL: "FSPLIT")     
                                                               (USP01I.1)       
      ZERO FEED TO THE BLOCK. BLOCK BYPASSED                                    

      UOS BLOCK B10      MODEL: HEATER                                            TIME =      0.35

  *   WARNING WHILE EXECUTING UNIT OPERATIONS BLOCK: "B10" (MODEL: "HEATER")    
                                                               (UHE01.4)        
      ZERO FEED TO THE BLOCK.  BLOCK BYPASSED                                   

      UOS BLOCK B17      MODEL: MIXER                                             TIME =      0.35
      KODE = 1   NO. TEMP ITER =    6     TEMP =  338.150    
      KPHASE =    2 KODE =    1 T =  338.150     P =  100000.     Q =  0.00000    

      UOS BLOCK $C-1     MODEL: DUPL                                              TIME =      0.35

      Batch Convergence Block $BASVR01 Hierarchy: B2                              TIME =      0.35

  *   WARNING WHILE EXECUTING BATCH CONVERGENC BLOCK: "$BASVR01" IN "B2"        
                                                               (WRTVARIN.1)     
      No active unit procedure is detected. The simulation will run to          
      the maximum integration time of 6.000 HR                                  

      Start task machine for batch B2.$BASVR01
         # Tasks =    0 NVTEAR =    0 NVTASK =    0 NVVARG =    0

      UOS BLOCK B2       MODEL: MIXER        HIERARCHY: B2                        TIME =      1.34
      KODE = 1   NO. TEMP ITER =    6     TEMP =  338.097    
      KPHASE =    2 KODE =    1 T =  338.097     P =  100000.     Q =  0.00000    

      UOS BLOCK B1       MODEL: BATCHOP      HIERARCHY: B2                        TIME =      1.34

      UOS BLOCK B1       MODEL: BATCHOP      HIERARCHY: B2                        TIME =      1.37
      STREAM B2.S5 WILL BE FLASHED FOR PROPERTY CALCULATIONS.
      KODE = 2   NO. TEMP ITER =    1     TEMP =  338.097    
      KPHASE =    2 KODE =    2 T =  338.097     P =  100000.     Q =-1.074539E-07

      UOS BLOCK B1       MODEL: BATCHOP      HIERARCHY: B2                        TIME =      1.57

      Integrating from  0.0000     to 0.10000E-01 by 0.10000E-01 HR

      UOS BLOCK B2       MODEL: MIXER        HIERARCHY: B2                        TIME =      1.62
      KODE = 1   NO. TEMP ITER =    1     TEMP =  338.097    
      KPHASE =    2 KODE =    1 T =  338.097     P =  100000.     Q =  0.00000    

      UOS BLOCK B1       MODEL: BATCHOP      HIERARCHY: B2                        TIME =      1.62

      UOS BLOCK B1       MODEL: BATCHOP      HIERARCHY: B2                        TIME =      1.64

      Integrating from 0.10000E-01 to 0.20000E-01 by 0.10000E-01 HR

      UOS BLOCK B2       MODEL: MIXER        HIERARCHY: B2                        TIME =      1.64
      KODE = 1   NO. TEMP ITER =    1     TEMP =  338.097    
      KPHASE =    2 KODE =    1 T =  338.097     P =  100000.     Q =  0.00000    

      UOS BLOCK B1       MODEL: BATCHOP      HIERARCHY: B2                        TIME =      1.64

      UOS BLOCK B1       MODEL: BATCHOP      HIERARCHY: B2                        TIME =      1.64

      Integrating from 0.20000E-01 to 0.30000E-01 by 0.10000E-01 HR

      UOS BLOCK B2       MODEL: MIXER        HIERARCHY: B2                        TIME =      1.64
      KODE = 1   NO. TEMP ITER =    1     TEMP =  338.097    
      KPHASE =    2 KODE =    1 T =  338.097     P =  100000.     Q =  0.00000    

      UOS BLOCK B1       MODEL: BATCHOP      HIERARCHY: B2                        TIME =      1.64

      UOS BLOCK B1       MODEL: BATCHOP      HIERARCHY: B2                        TIME =      1.65

      Integrating from 0.30000E-01 to 0.40000E-01 by 0.10000E-01 HR

      UOS BLOCK B2       MODEL: MIXER        HIERARCHY: B2                        TIME =      1.65
      KODE = 1   NO. TEMP ITER =    1     TEMP =  338.097    
      KPHASE =    2 KODE =    1 T =  338.097     P =  100000.     Q =  0.00000    

      UOS BLOCK B1       MODEL: BATCHOP      HIERARCHY: B2                        TIME =      1.65

      UOS BLOCK B1       MODEL: BATCHOP      HIERARCHY: B2                        TIME =      1.65

      Integrating from 0.40000E-01 to 0.50000E-01 by 0.10000E-01 HR

      UOS BLOCK B2       MODEL: MIXER        HIERARCHY: B2                        TIME =      1.65
      KODE = 1   NO. TEMP ITER =    1     TEMP =  338.097    
      KPHASE =    2 KODE =    1 T =  338.097     P =  100000.     Q =  0.00000    

      UOS BLOCK B1       MODEL: BATCHOP      HIERARCHY: B2                        TIME =      1.65

      UOS BLOCK B1       MODEL: BATCHOP      HIERARCHY: B2                        TIME =      1.74

      Integrating from 0.50000E-01 to 0.60000E-01 by 0.10000E-01 HR

      UOS BLOCK B2       MODEL: MIXER        HIERARCHY: B2                        TIME =      1.80
      KODE = 1   NO. TEMP ITER =    1     TEMP =  338.097    
      KPHASE =    2 KODE =    1 T =  338.097     P =  100000.     Q =  0.00000    

      UOS BLOCK B1       MODEL: BATCHOP      HIERARCHY: B2                        TIME =      1.80

      UOS BLOCK B1       MODEL: BATCHOP      HIERARCHY: B2                        TIME =      1.80

      Integrating from 0.60000E-01 to 0.70000E-01 by 0.10000E-01 HR

      UOS BLOCK B2       MODEL: MIXER        HIERARCHY: B2                        TIME =      1.80
      KODE = 1   NO. TEMP ITER =    1     TEMP =  338.097    
      KPHASE =    2 KODE =    1 T =  338.097     P =  100000.     Q =  0.00000    

      UOS BLOCK B1       MODEL: BATCHOP      HIERARCHY: B2                        TIME =      1.80

      UOS BLOCK B1       MODEL: BATCHOP      HIERARCHY: B2                        TIME =      1.80

      Integrating from 0.70000E-01 to 0.80000E-01 by 0.10000E-01 HR

      UOS BLOCK B2       MODEL: MIXER        HIERARCHY: B2                        TIME =      1.80
      KODE = 1   NO. TEMP ITER =    1     TEMP =  338.097    
      KPHASE =    2 KODE =    1 T =  338.097     P =  100000.     Q =  0.00000    

      UOS BLOCK B1       MODEL: BATCHOP      HIERARCHY: B2                        TIME =      1.80

      UOS BLOCK B1       MODEL: BATCHOP      HIERARCHY: B2                        TIME =      1.80

      Integrating from 0.80000E-01 to 0.90000E-01 by 0.10000E-01 HR

      UOS BLOCK B2       MODEL: MIXER        HIERARCHY: B2                        TIME =      1.80
      KODE = 1   NO. TEMP ITER =    1     TEMP =  338.097    
      KPHASE =    2 KODE =    1 T =  338.097     P =  100000.     Q =  0.00000    

      UOS BLOCK B1       MODEL: BATCHOP      HIERARCHY: B2                        TIME =      1.80

      UOS BLOCK B1       MODEL: BATCHOP      HIERARCHY: B2                        TIME =      1.80

      Integrating from 0.90000E-01 to 0.10000     by 0.10000E-01 HR

      UOS BLOCK B2       MODEL: MIXER        HIERARCHY: B2                        TIME =      1.80
      KODE = 1   NO. TEMP ITER =    1     TEMP =  338.097    
      KPHASE =    2 KODE =    1 T =  338.097     P =  100000.     Q =  0.00000    

      UOS BLOCK B1       MODEL: BATCHOP      HIERARCHY: B2                        TIME =      1.80

      UOS BLOCK B1       MODEL: BATCHOP      HIERARCHY: B2                        TIME =      1.89

      Integrating from 0.10000     to 0.11000     by 0.10000E-01 HR

      UOS BLOCK B2       MODEL: MIXER        HIERARCHY: B2                        TIME =      1.95
      KODE = 1   NO. TEMP ITER =    1     TEMP =  338.097    
      KPHASE =    2 KODE =    1 T =  338.097     P =  100000.     Q =  0.00000    

      UOS BLOCK B1       MODEL: BATCHOP      HIERARCHY: B2                        TIME =      1.95

      UOS BLOCK B1       MODEL: BATCHOP      HIERARCHY: B2                        TIME =      1.95

      Integrating from 0.11000     to 0.12000     by 0.10000E-01 HR

      UOS BLOCK B2       MODEL: MIXER        HIERARCHY: B2                        TIME =      1.95
      KODE = 1   NO. TEMP ITER =    1     TEMP =  338.097    
      KPHASE =    2 KODE =    1 T =  338.097     P =  100000.     Q =  0.00000    

      UOS BLOCK B1       MODEL: BATCHOP      HIERARCHY: B2                        TIME =      1.95

      UOS BLOCK B1       MODEL: BATCHOP      HIERARCHY: B2                        TIME =      1.95

      Integrating from 0.12000     to 0.13000     by 0.10000E-01 HR

      UOS BLOCK B2       MODEL: MIXER        HIERARCHY: B2                        TIME =      1.95
      KODE = 1   NO. TEMP ITER =    1     TEMP =  338.097    
      KPHASE =    2 KODE =    1 T =  338.097     P =  100000.     Q =  0.00000    

      UOS BLOCK B1       MODEL: BATCHOP      HIERARCHY: B2                        TIME =      1.95

      UOS BLOCK B1       MODEL: BATCHOP      HIERARCHY: B2                        TIME =      1.95

      Integrating from 0.13000     to 0.14000     by 0.10000E-01 HR

      UOS BLOCK B2       MODEL: MIXER        HIERARCHY: B2                        TIME =      1.95
      KODE = 1   NO. TEMP ITER =    1     TEMP =  338.097    
      KPHASE =    2 KODE =    1 T =  338.097     P =  100000.     Q =  0.00000    

      UOS BLOCK B1       MODEL: BATCHOP      HIERARCHY: B2                        TIME =      1.95

      UOS BLOCK B1       MODEL: BATCHOP      HIERARCHY: B2                        TIME =      1.95

      Integrating from 0.14000     to 0.15000     by 0.10000E-01 HR

      UOS BLOCK B2       MODEL: MIXER        HIERARCHY: B2                        TIME =      1.96
      KODE = 1   NO. TEMP ITER =    1     TEMP =  338.097    
      KPHASE =    2 KODE =    1 T =  338.097     P =  100000.     Q =  0.00000    

      UOS BLOCK B1       MODEL: BATCHOP      HIERARCHY: B2                        TIME =      1.96

      UOS BLOCK B1       MODEL: BATCHOP      HIERARCHY: B2                        TIME =      2.05

      Integrating from 0.15000     to 0.16000     by 0.10000E-01 HR

      UOS BLOCK B2       MODEL: MIXER        HIERARCHY: B2                        TIME =      2.11
      KODE = 1   NO. TEMP ITER =    1     TEMP =  338.097    
      KPHASE =    2 KODE =    1 T =  338.097     P =  100000.     Q =  0.00000    

      UOS BLOCK B1       MODEL: BATCHOP      HIERARCHY: B2                        TIME =      2.11

      UOS BLOCK B1       MODEL: BATCHOP      HIERARCHY: B2                        TIME =      2.11

      Integrating from 0.16000     to 0.17000     by 0.10000E-01 HR

      UOS BLOCK B2       MODEL: MIXER        HIERARCHY: B2                        TIME =      2.11
      KODE = 1   NO. TEMP ITER =    1     TEMP =  338.097    
      KPHASE =    2 KODE =    1 T =  338.097     P =  100000.     Q =  0.00000    

      UOS BLOCK B1       MODEL: BATCHOP      HIERARCHY: B2                        TIME =      2.11

      UOS BLOCK B1       MODEL: BATCHOP      HIERARCHY: B2                        TIME =      2.11

      Integrating from 0.17000     to 0.18000     by 0.10000E-01 HR

      UOS BLOCK B2       MODEL: MIXER        HIERARCHY: B2                        TIME =      2.11
      KODE = 1   NO. TEMP ITER =    1     TEMP =  338.097    
      KPHASE =    2 KODE =    1 T =  338.097     P =  100000.     Q =  0.00000    

      UOS BLOCK B1       MODEL: BATCHOP      HIERARCHY: B2                        TIME =      2.11

      UOS BLOCK B1       MODEL: BATCHOP      HIERARCHY: B2                        TIME =      2.12

      Integrating from 0.18000     to 0.19000     by 0.10000E-01 HR

      UOS BLOCK B2       MODEL: MIXER        HIERARCHY: B2                        TIME =      2.12
      KODE = 1   NO. TEMP ITER =    1     TEMP =  338.097    
      KPHASE =    2 KODE =    1 T =  338.097     P =  100000.     Q =  0.00000    

      UOS BLOCK B1       MODEL: BATCHOP      HIERARCHY: B2                        TIME =      2.12

      UOS BLOCK B1       MODEL: BATCHOP      HIERARCHY: B2                        TIME =      2.12

      Integrating from 0.19000     to 0.20000     by 0.10000E-01 HR

      UOS BLOCK B2       MODEL: MIXER        HIERARCHY: B2                        TIME =      2.12
      KODE = 1   NO. TEMP ITER =    1     TEMP =  338.097    
      KPHASE =    2 KODE =    1 T =  338.097     P =  100000.     Q =  0.00000    

      UOS BLOCK B1       MODEL: BATCHOP      HIERARCHY: B2                        TIME =      2.12

      UOS BLOCK B1       MODEL: BATCHOP      HIERARCHY: B2                        TIME =      2.20

      Integrating from 0.20000     to 0.21000     by 0.10000E-01 HR

      UOS BLOCK B2       MODEL: MIXER        HIERARCHY: B2                        TIME =      2.25
      KODE = 1   NO. TEMP ITER =    1     TEMP =  338.097    
      KPHASE =    2 KODE =    1 T =  338.097     P =  100000.     Q =  0.00000    

      UOS BLOCK B1       MODEL: BATCHOP      HIERARCHY: B2                        TIME =      2.25

      UOS BLOCK B1       MODEL: BATCHOP      HIERARCHY: B2                        TIME =      2.25

      Integrating from 0.21000     to 0.22000     by 0.10000E-01 HR

      UOS BLOCK B2       MODEL: MIXER        HIERARCHY: B2                        TIME =      2.25
      KODE = 1   NO. TEMP ITER =    1     TEMP =  338.097    
      KPHASE =    2 KODE =    1 T =  338.097     P =  100000.     Q =  0.00000    

      UOS BLOCK B1       MODEL: BATCHOP      HIERARCHY: B2                        TIME =      2.25

      UOS BLOCK B1       MODEL: BATCHOP      HIERARCHY: B2                        TIME =      2.25

      Integrating from 0.22000     to 0.23000     by 0.10000E-01 HR

      UOS BLOCK B2       MODEL: MIXER        HIERARCHY: B2                        TIME =      2.25
      KODE = 1   NO. TEMP ITER =    1     TEMP =  338.097    
      KPHASE =    2 KODE =    1 T =  338.097     P =  100000.     Q =  0.00000    

      UOS BLOCK B1       MODEL: BATCHOP      HIERARCHY: B2                        TIME =      2.25

      UOS BLOCK B1       MODEL: BATCHOP      HIERARCHY: B2                        TIME =      2.26

      Integrating from 0.23000     to 0.24000     by 0.10000E-01 HR

      UOS BLOCK B2       MODEL: MIXER        HIERARCHY: B2                        TIME =      2.26
      KODE = 1   NO. TEMP ITER =    1     TEMP =  338.097    
      KPHASE =    2 KODE =    1 T =  338.097     P =  100000.     Q =  0.00000    

      UOS BLOCK B1       MODEL: BATCHOP      HIERARCHY: B2                        TIME =      2.26

      UOS BLOCK B1       MODEL: BATCHOP      HIERARCHY: B2                        TIME =      2.26

      Integrating from 0.24000     to 0.25000     by 0.10000E-01 HR

      UOS BLOCK B2       MODEL: MIXER        HIERARCHY: B2                        TIME =      2.26
      KODE = 1   NO. TEMP ITER =    1     TEMP =  338.097    
      KPHASE =    2 KODE =    1 T =  338.097     P =  100000.     Q =  0.00000    

      UOS BLOCK B1       MODEL: BATCHOP      HIERARCHY: B2                        TIME =      2.26

      UOS BLOCK B1       MODEL: BATCHOP      HIERARCHY: B2                        TIME =      2.34

      Integrating from 0.25000     to 0.26000     by 0.10000E-01 HR

      UOS BLOCK B2       MODEL: MIXER        HIERARCHY: B2                        TIME =      2.39
      KODE = 1   NO. TEMP ITER =    1     TEMP =  338.097    
      KPHASE =    2 KODE =    1 T =  338.097     P =  100000.     Q =  0.00000    

      UOS BLOCK B1       MODEL: BATCHOP      HIERARCHY: B2                        TIME =      2.39

      UOS BLOCK B1       MODEL: BATCHOP      HIERARCHY: B2                        TIME =      2.40

      Integrating from 0.26000     to 0.27000     by 0.10000E-01 HR

      UOS BLOCK B2       MODEL: MIXER        HIERARCHY: B2                        TIME =      2.40
      KODE = 1   NO. TEMP ITER =    1     TEMP =  338.097    
      KPHASE =    2 KODE =    1 T =  338.097     P =  100000.     Q =  0.00000    

      UOS BLOCK B1       MODEL: BATCHOP      HIERARCHY: B2                        TIME =      2.40

      UOS BLOCK B1       MODEL: BATCHOP      HIERARCHY: B2                        TIME =      2.40

      Integrating from 0.27000     to 0.28000     by 0.10000E-01 HR

      UOS BLOCK B2       MODEL: MIXER        HIERARCHY: B2                        TIME =      2.40
      KODE = 1   NO. TEMP ITER =    1     TEMP =  338.097    
      KPHASE =    2 KODE =    1 T =  338.097     P =  100000.     Q =  0.00000    

      UOS BLOCK B1       MODEL: BATCHOP      HIERARCHY: B2                        TIME =      2.40

      UOS BLOCK B1       MODEL: BATCHOP      HIERARCHY: B2                        TIME =      2.40

      Integrating from 0.28000     to 0.29000     by 0.10000E-01 HR

      UOS BLOCK B2       MODEL: MIXER        HIERARCHY: B2                        TIME =      2.40
      KODE = 1   NO. TEMP ITER =    1     TEMP =  338.097    
      KPHASE =    2 KODE =    1 T =  338.097     P =  100000.     Q =  0.00000    

      UOS BLOCK B1       MODEL: BATCHOP      HIERARCHY: B2                        TIME =      2.40

      UOS BLOCK B1       MODEL: BATCHOP      HIERARCHY: B2                        TIME =      2.40

      Integrating from 0.29000     to 0.30000     by 0.10000E-01 HR

      UOS BLOCK B2       MODEL: MIXER        HIERARCHY: B2                        TIME =      2.40
      KODE = 1   NO. TEMP ITER =    1     TEMP =  338.097    
      KPHASE =    2 KODE =    1 T =  338.097     P =  100000.     Q =  0.00000    

      UOS BLOCK B1       MODEL: BATCHOP      HIERARCHY: B2                        TIME =      2.40

      UOS BLOCK B1       MODEL: BATCHOP      HIERARCHY: B2                        TIME =      2.52

      Integrating from 0.30000     to 0.31000     by 0.10000E-01 HR

      UOS BLOCK B2       MODEL: MIXER        HIERARCHY: B2                        TIME =      2.58
      KODE = 1   NO. TEMP ITER =    1     TEMP =  338.097    
      KPHASE =    2 KODE =    1 T =  338.097     P =  100000.     Q =  0.00000    

      UOS BLOCK B1       MODEL: BATCHOP      HIERARCHY: B2                        TIME =      2.58

      UOS BLOCK B1       MODEL: BATCHOP      HIERARCHY: B2                        TIME =      2.58

      Integrating from 0.31000     to 0.32000     by 0.10000E-01 HR

      UOS BLOCK B2       MODEL: MIXER        HIERARCHY: B2                        TIME =      2.58
      KODE = 1   NO. TEMP ITER =    1     TEMP =  338.097    
      KPHASE =    2 KODE =    1 T =  338.097     P =  100000.     Q =  0.00000    

      UOS BLOCK B1       MODEL: BATCHOP      HIERARCHY: B2                        TIME =      2.58

      UOS BLOCK B1       MODEL: BATCHOP      HIERARCHY: B2                        TIME =      2.58

      Integrating from 0.32000     to 0.33000     by 0.10000E-01 HR

      UOS BLOCK B2       MODEL: MIXER        HIERARCHY: B2                        TIME =      2.58
      KODE = 1   NO. TEMP ITER =    1     TEMP =  338.097    
      KPHASE =    2 KODE =    1 T =  338.097     P =  100000.     Q =  0.00000    

      UOS BLOCK B1       MODEL: BATCHOP      HIERARCHY: B2                        TIME =      2.58

      UOS BLOCK B1       MODEL: BATCHOP      HIERARCHY: B2                        TIME =      2.58

      Integrating from 0.33000     to 0.34000     by 0.10000E-01 HR

      UOS BLOCK B2       MODEL: MIXER        HIERARCHY: B2                        TIME =      2.58
      KODE = 1   NO. TEMP ITER =    1     TEMP =  338.097    
      KPHASE =    2 KODE =    1 T =  338.097     P =  100000.     Q =  0.00000    

      UOS BLOCK B1       MODEL: BATCHOP      HIERARCHY: B2                        TIME =      2.58

      UOS BLOCK B1       MODEL: BATCHOP      HIERARCHY: B2                        TIME =      2.58

      Integrating from 0.34000     to 0.35000     by 0.10000E-01 HR

      UOS BLOCK B2       MODEL: MIXER        HIERARCHY: B2                        TIME =      2.58
      KODE = 1   NO. TEMP ITER =    1     TEMP =  338.097    
      KPHASE =    2 KODE =    1 T =  338.097     P =  100000.     Q =  0.00000    

      UOS BLOCK B1       MODEL: BATCHOP      HIERARCHY: B2                        TIME =      2.58

      UOS BLOCK B1       MODEL: BATCHOP      HIERARCHY: B2                        TIME =      2.67

      Integrating from 0.35000     to 0.36000     by 0.10000E-01 HR

      UOS BLOCK B2       MODEL: MIXER        HIERARCHY: B2                        TIME =      2.73
      KODE = 1   NO. TEMP ITER =    1     TEMP =  338.097    
      KPHASE =    2 KODE =    1 T =  338.097     P =  100000.     Q =  0.00000    

      UOS BLOCK B1       MODEL: BATCHOP      HIERARCHY: B2                        TIME =      2.73

      UOS BLOCK B1       MODEL: BATCHOP      HIERARCHY: B2                        TIME =      2.73

      Integrating from 0.36000     to 0.37000     by 0.10000E-01 HR

      UOS BLOCK B2       MODEL: MIXER        HIERARCHY: B2                        TIME =      2.73
      KODE = 1   NO. TEMP ITER =    1     TEMP =  338.097    
      KPHASE =    2 KODE =    1 T =  338.097     P =  100000.     Q =  0.00000    

      UOS BLOCK B1       MODEL: BATCHOP      HIERARCHY: B2                        TIME =      2.73

      UOS BLOCK B1       MODEL: BATCHOP      HIERARCHY: B2                        TIME =      2.73

      Integrating from 0.37000     to 0.38000     by 0.10000E-01 HR

      UOS BLOCK B2       MODEL: MIXER        HIERARCHY: B2                        TIME =      2.73
      KODE = 1   NO. TEMP ITER =    1     TEMP =  338.097    
      KPHASE =    2 KODE =    1 T =  338.097     P =  100000.     Q =  0.00000    

      UOS BLOCK B1       MODEL: BATCHOP      HIERARCHY: B2                        TIME =      2.73

      UOS BLOCK B1       MODEL: BATCHOP      HIERARCHY: B2                        TIME =      2.73

      Integrating from 0.38000     to 0.39000     by 0.10000E-01 HR

      UOS BLOCK B2       MODEL: MIXER        HIERARCHY: B2                        TIME =      2.73
      KODE = 1   NO. TEMP ITER =    1     TEMP =  338.097    
      KPHASE =    2 KODE =    1 T =  338.097     P =  100000.     Q =  0.00000    

      UOS BLOCK B1       MODEL: BATCHOP      HIERARCHY: B2                        TIME =      2.73

      UOS BLOCK B1       MODEL: BATCHOP      HIERARCHY: B2                        TIME =      2.73

      Integrating from 0.39000     to 0.40000     by 0.10000E-01 HR

      UOS BLOCK B2       MODEL: MIXER        HIERARCHY: B2                        TIME =      2.73
      KODE = 1   NO. TEMP ITER =    1     TEMP =  338.097    
      KPHASE =    2 KODE =    1 T =  338.097     P =  100000.     Q =  0.00000    

      UOS BLOCK B1       MODEL: BATCHOP      HIERARCHY: B2                        TIME =      2.73

      UOS BLOCK B1       MODEL: BATCHOP      HIERARCHY: B2                        TIME =      2.81

      Integrating from 0.40000     to 0.41000     by 0.10000E-01 HR

      UOS BLOCK B2       MODEL: MIXER        HIERARCHY: B2                        TIME =      2.85
      KODE = 1   NO. TEMP ITER =    1     TEMP =  338.097    
      KPHASE =    2 KODE =    1 T =  338.097     P =  100000.     Q =  0.00000    

      UOS BLOCK B1       MODEL: BATCHOP      HIERARCHY: B2                        TIME =      2.85

      UOS BLOCK B1       MODEL: BATCHOP      HIERARCHY: B2                        TIME =      2.85

      Integrating from 0.41000     to 0.42000     by 0.10000E-01 HR

      UOS BLOCK B2       MODEL: MIXER        HIERARCHY: B2                        TIME =      2.85
      KODE = 1   NO. TEMP ITER =    1     TEMP =  338.097    
      KPHASE =    2 KODE =    1 T =  338.097     P =  100000.     Q =  0.00000    

      UOS BLOCK B1       MODEL: BATCHOP      HIERARCHY: B2                        TIME =      2.85

      UOS BLOCK B1       MODEL: BATCHOP      HIERARCHY: B2                        TIME =      2.85

      Integrating from 0.42000     to 0.43000     by 0.10000E-01 HR

      UOS BLOCK B2       MODEL: MIXER        HIERARCHY: B2                        TIME =      2.86
      KODE = 1   NO. TEMP ITER =    1     TEMP =  338.097    
      KPHASE =    2 KODE =    1 T =  338.097     P =  100000.     Q =  0.00000    

      UOS BLOCK B1       MODEL: BATCHOP      HIERARCHY: B2                        TIME =      2.86

      UOS BLOCK B1       MODEL: BATCHOP      HIERARCHY: B2                        TIME =      2.86

      Integrating from 0.43000     to 0.44000     by 0.10000E-01 HR

      UOS BLOCK B2       MODEL: MIXER        HIERARCHY: B2                        TIME =      2.86
      KODE = 1   NO. TEMP ITER =    1     TEMP =  338.097    
      KPHASE =    2 KODE =    1 T =  338.097     P =  100000.     Q =  0.00000    

      UOS BLOCK B1       MODEL: BATCHOP      HIERARCHY: B2                        TIME =      2.86

      UOS BLOCK B1       MODEL: BATCHOP      HIERARCHY: B2                        TIME =      2.86

      Integrating from 0.44000     to 0.45000     by 0.10000E-01 HR

      UOS BLOCK B2       MODEL: MIXER        HIERARCHY: B2                        TIME =      2.86
      KODE = 1   NO. TEMP ITER =    1     TEMP =  338.097    
      KPHASE =    2 KODE =    1 T =  338.097     P =  100000.     Q =  0.00000    

      UOS BLOCK B1       MODEL: BATCHOP      HIERARCHY: B2                        TIME =      2.86

      UOS BLOCK B1       MODEL: BATCHOP      HIERARCHY: B2                        TIME =      2.92

      Integrating from 0.45000     to 0.46000     by 0.10000E-01 HR

      UOS BLOCK B2       MODEL: MIXER        HIERARCHY: B2                        TIME =      2.97
      KODE = 1   NO. TEMP ITER =    1     TEMP =  338.097    
      KPHASE =    2 KODE =    1 T =  338.097     P =  100000.     Q =  0.00000    

      UOS BLOCK B1       MODEL: BATCHOP      HIERARCHY: B2                        TIME =      2.98

      UOS BLOCK B1       MODEL: BATCHOP      HIERARCHY: B2                        TIME =      2.98

      Integrating from 0.46000     to 0.47000     by 0.10000E-01 HR

      UOS BLOCK B2       MODEL: MIXER        HIERARCHY: B2                        TIME =      2.98
      KODE = 1   NO. TEMP ITER =    1     TEMP =  338.097    
      KPHASE =    2 KODE =    1 T =  338.097     P =  100000.     Q =  0.00000    

      UOS BLOCK B1       MODEL: BATCHOP      HIERARCHY: B2                        TIME =      2.98

      UOS BLOCK B1       MODEL: BATCHOP      HIERARCHY: B2                        TIME =      2.98

      Integrating from 0.47000     to 0.48000     by 0.10000E-01 HR

      UOS BLOCK B2       MODEL: MIXER        HIERARCHY: B2                        TIME =      2.98
      KODE = 1   NO. TEMP ITER =    1     TEMP =  338.097    
      KPHASE =    2 KODE =    1 T =  338.097     P =  100000.     Q =  0.00000    

      UOS BLOCK B1       MODEL: BATCHOP      HIERARCHY: B2                        TIME =      2.98

      UOS BLOCK B1       MODEL: BATCHOP      HIERARCHY: B2                        TIME =      2.98

      Integrating from 0.48000     to 0.49000     by 0.10000E-01 HR

      UOS BLOCK B2       MODEL: MIXER        HIERARCHY: B2                        TIME =      2.98
      KODE = 1   NO. TEMP ITER =    1     TEMP =  338.097    
      KPHASE =    2 KODE =    1 T =  338.097     P =  100000.     Q =  0.00000    

      UOS BLOCK B1       MODEL: BATCHOP      HIERARCHY: B2                        TIME =      2.98

      UOS BLOCK B1       MODEL: BATCHOP      HIERARCHY: B2                        TIME =      2.98

      Integrating from 0.49000     to 0.50000     by 0.10000E-01 HR

      UOS BLOCK B2       MODEL: MIXER        HIERARCHY: B2                        TIME =      2.98
      KODE = 1   NO. TEMP ITER =    1     TEMP =  338.097    
      KPHASE =    2 KODE =    1 T =  338.097     P =  100000.     Q =  0.00000    

      UOS BLOCK B1       MODEL: BATCHOP      HIERARCHY: B2                        TIME =      2.98

      UOS BLOCK B1       MODEL: BATCHOP      HIERARCHY: B2                        TIME =      3.05

      Integrating from 0.50000     to 0.51000     by 0.10000E-01 HR

      UOS BLOCK B2       MODEL: MIXER        HIERARCHY: B2                        TIME =      3.10
      KODE = 1   NO. TEMP ITER =    1     TEMP =  338.097    
      KPHASE =    2 KODE =    1 T =  338.097     P =  100000.     Q =  0.00000    

      UOS BLOCK B1       MODEL: BATCHOP      HIERARCHY: B2                        TIME =      3.10

      UOS BLOCK B1       MODEL: BATCHOP      HIERARCHY: B2                        TIME =      3.10

      Integrating from 0.51000     to 0.52000     by 0.10000E-01 HR

      UOS BLOCK B2       MODEL: MIXER        HIERARCHY: B2                        TIME =      3.10
      KODE = 1   NO. TEMP ITER =    1     TEMP =  338.097    
      KPHASE =    2 KODE =    1 T =  338.097     P =  100000.     Q =  0.00000    

      UOS BLOCK B1       MODEL: BATCHOP      HIERARCHY: B2                        TIME =      3.10

      UOS BLOCK B1       MODEL: BATCHOP      HIERARCHY: B2                        TIME =      3.10

      Integrating from 0.52000     to 0.53000     by 0.10000E-01 HR

      UOS BLOCK B2       MODEL: MIXER        HIERARCHY: B2                        TIME =      3.11
      KODE = 1   NO. TEMP ITER =    1     TEMP =  338.097    
      KPHASE =    2 KODE =    1 T =  338.097     P =  100000.     Q =  0.00000    

      UOS BLOCK B1       MODEL: BATCHOP      HIERARCHY: B2                        TIME =      3.11

      UOS BLOCK B1       MODEL: BATCHOP      HIERARCHY: B2                        TIME =      3.11

      Integrating from 0.53000     to 0.54000     by 0.10000E-01 HR

      UOS BLOCK B2       MODEL: MIXER        HIERARCHY: B2                        TIME =      3.11
      KODE = 1   NO. TEMP ITER =    1     TEMP =  338.097    
      KPHASE =    2 KODE =    1 T =  338.097     P =  100000.     Q =  0.00000    

      UOS BLOCK B1       MODEL: BATCHOP      HIERARCHY: B2                        TIME =      3.11

      UOS BLOCK B1       MODEL: BATCHOP      HIERARCHY: B2                        TIME =      3.11

      Integrating from 0.54000     to 0.55000     by 0.10000E-01 HR

      UOS BLOCK B2       MODEL: MIXER        HIERARCHY: B2                        TIME =      3.11
      KODE = 1   NO. TEMP ITER =    1     TEMP =  338.097    
      KPHASE =    2 KODE =    1 T =  338.097     P =  100000.     Q =  0.00000    

      UOS BLOCK B1       MODEL: BATCHOP      HIERARCHY: B2                        TIME =      3.11

      UOS BLOCK B1       MODEL: BATCHOP      HIERARCHY: B2                        TIME =      3.20

      Integrating from 0.55000     to 0.56000     by 0.10000E-01 HR

      UOS BLOCK B2       MODEL: MIXER        HIERARCHY: B2                        TIME =      3.25
      KODE = 1   NO. TEMP ITER =    1     TEMP =  338.097    
      KPHASE =    2 KODE =    1 T =  338.097     P =  100000.     Q =  0.00000    

      UOS BLOCK B1       MODEL: BATCHOP      HIERARCHY: B2                        TIME =      3.25

      UOS BLOCK B1       MODEL: BATCHOP      HIERARCHY: B2                        TIME =      3.25

      Integrating from 0.56000     to 0.57000     by 0.10000E-01 HR

      UOS BLOCK B2       MODEL: MIXER        HIERARCHY: B2                        TIME =      3.25
      KODE = 1   NO. TEMP ITER =    1     TEMP =  338.097    
      KPHASE =    2 KODE =    1 T =  338.097     P =  100000.     Q =  0.00000    

      UOS BLOCK B1       MODEL: BATCHOP      HIERARCHY: B2                        TIME =      3.25

      UOS BLOCK B1       MODEL: BATCHOP      HIERARCHY: B2                        TIME =      3.25

      Integrating from 0.57000     to 0.58000     by 0.10000E-01 HR

      UOS BLOCK B2       MODEL: MIXER        HIERARCHY: B2                        TIME =      3.25
      KODE = 1   NO. TEMP ITER =    1     TEMP =  338.097    
      KPHASE =    2 KODE =    1 T =  338.097     P =  100000.     Q =  0.00000    

      UOS BLOCK B1       MODEL: BATCHOP      HIERARCHY: B2                        TIME =      3.25

      UOS BLOCK B1       MODEL: BATCHOP      HIERARCHY: B2                        TIME =      3.25

      Integrating from 0.58000     to 0.59000     by 0.10000E-01 HR

      UOS BLOCK B2       MODEL: MIXER        HIERARCHY: B2                        TIME =      3.25
      KODE = 1   NO. TEMP ITER =    1     TEMP =  338.097    
      KPHASE =    2 KODE =    1 T =  338.097     P =  100000.     Q =  0.00000    

      UOS BLOCK B1       MODEL: BATCHOP      HIERARCHY: B2                        TIME =      3.25

      UOS BLOCK B1       MODEL: BATCHOP      HIERARCHY: B2                        TIME =      3.25

      Integrating from 0.59000     to 0.60000     by 0.10000E-01 HR

      UOS BLOCK B2       MODEL: MIXER        HIERARCHY: B2                        TIME =      3.25
      KODE = 1   NO. TEMP ITER =    1     TEMP =  338.097    
      KPHASE =    2 KODE =    1 T =  338.097     P =  100000.     Q =  0.00000    

      UOS BLOCK B1       MODEL: BATCHOP      HIERARCHY: B2                        TIME =      3.25

      UOS BLOCK B1       MODEL: BATCHOP      HIERARCHY: B2                        TIME =      3.31

      Integrating from 0.60000     to 0.61000     by 0.10000E-01 HR

      UOS BLOCK B2       MODEL: MIXER        HIERARCHY: B2                        TIME =      3.37
      KODE = 1   NO. TEMP ITER =    1     TEMP =  338.097    
      KPHASE =    2 KODE =    1 T =  338.097     P =  100000.     Q =  0.00000    

      UOS BLOCK B1       MODEL: BATCHOP      HIERARCHY: B2                        TIME =      3.38

      UOS BLOCK B1       MODEL: BATCHOP      HIERARCHY: B2                        TIME =      3.38

      Integrating from 0.61000     to 0.62000     by 0.10000E-01 HR

      UOS BLOCK B2       MODEL: MIXER        HIERARCHY: B2                        TIME =      3.38
      KODE = 1   NO. TEMP ITER =    1     TEMP =  338.097    
      KPHASE =    2 KODE =    1 T =  338.097     P =  100000.     Q =  0.00000    

      UOS BLOCK B1       MODEL: BATCHOP      HIERARCHY: B2                        TIME =      3.38

      UOS BLOCK B1       MODEL: BATCHOP      HIERARCHY: B2                        TIME =      3.38

      Integrating from 0.62000     to 0.63000     by 0.10000E-01 HR

      UOS BLOCK B2       MODEL: MIXER        HIERARCHY: B2                        TIME =      3.38
      KODE = 1   NO. TEMP ITER =    1     TEMP =  338.097    
      KPHASE =    2 KODE =    1 T =  338.097     P =  100000.     Q =  0.00000    

      UOS BLOCK B1       MODEL: BATCHOP      HIERARCHY: B2                        TIME =      3.38

      UOS BLOCK B1       MODEL: BATCHOP      HIERARCHY: B2                        TIME =      3.38

      Integrating from 0.63000     to 0.64000     by 0.10000E-01 HR

      UOS BLOCK B2       MODEL: MIXER        HIERARCHY: B2                        TIME =      3.38
      KODE = 1   NO. TEMP ITER =    1     TEMP =  338.097    
      KPHASE =    2 KODE =    1 T =  338.097     P =  100000.     Q =  0.00000    

      UOS BLOCK B1       MODEL: BATCHOP      HIERARCHY: B2                        TIME =      3.38

      UOS BLOCK B1       MODEL: BATCHOP      HIERARCHY: B2                        TIME =      3.38

      Integrating from 0.64000     to 0.65000     by 0.10000E-01 HR

      UOS BLOCK B2       MODEL: MIXER        HIERARCHY: B2                        TIME =      3.39
      KODE = 1   NO. TEMP ITER =    1     TEMP =  338.097    
      KPHASE =    2 KODE =    1 T =  338.097     P =  100000.     Q =  0.00000    

      UOS BLOCK B1       MODEL: BATCHOP      HIERARCHY: B2                        TIME =      3.39

      UOS BLOCK B1       MODEL: BATCHOP      HIERARCHY: B2                        TIME =      3.46

      Integrating from 0.65000     to 0.66000     by 0.10000E-01 HR

      UOS BLOCK B2       MODEL: MIXER        HIERARCHY: B2                        TIME =      3.51
      KODE = 1   NO. TEMP ITER =    1     TEMP =  338.097    
      KPHASE =    2 KODE =    1 T =  338.097     P =  100000.     Q =  0.00000    

      UOS BLOCK B1       MODEL: BATCHOP      HIERARCHY: B2                        TIME =      3.52

      UOS BLOCK B1       MODEL: BATCHOP      HIERARCHY: B2                        TIME =      3.52

      Integrating from 0.66000     to 0.67000     by 0.10000E-01 HR

      UOS BLOCK B2       MODEL: MIXER        HIERARCHY: B2                        TIME =      3.52
      KODE = 1   NO. TEMP ITER =    1     TEMP =  338.097    
      KPHASE =    2 KODE =    1 T =  338.097     P =  100000.     Q =  0.00000    

      UOS BLOCK B1       MODEL: BATCHOP      HIERARCHY: B2                        TIME =      3.52

      UOS BLOCK B1       MODEL: BATCHOP      HIERARCHY: B2                        TIME =      3.52

      Integrating from 0.67000     to 0.68000     by 0.10000E-01 HR

      UOS BLOCK B2       MODEL: MIXER        HIERARCHY: B2                        TIME =      3.52
      KODE = 1   NO. TEMP ITER =    1     TEMP =  338.097    
      KPHASE =    2 KODE =    1 T =  338.097     P =  100000.     Q =  0.00000    

      UOS BLOCK B1       MODEL: BATCHOP      HIERARCHY: B2                        TIME =      3.52

      UOS BLOCK B1       MODEL: BATCHOP      HIERARCHY: B2                        TIME =      3.52

      Integrating from 0.68000     to 0.69000     by 0.10000E-01 HR

      UOS BLOCK B2       MODEL: MIXER        HIERARCHY: B2                        TIME =      3.52
      KODE = 1   NO. TEMP ITER =    1     TEMP =  338.097    
      KPHASE =    2 KODE =    1 T =  338.097     P =  100000.     Q =  0.00000    

      UOS BLOCK B1       MODEL: BATCHOP      HIERARCHY: B2                        TIME =      3.52

      UOS BLOCK B1       MODEL: BATCHOP      HIERARCHY: B2                        TIME =      3.52

      Integrating from 0.69000     to 0.70000     by 0.10000E-01 HR

      UOS BLOCK B2       MODEL: MIXER        HIERARCHY: B2                        TIME =      3.52
      KODE = 1   NO. TEMP ITER =    1     TEMP =  338.097    
      KPHASE =    2 KODE =    1 T =  338.097     P =  100000.     Q =  0.00000    

      UOS BLOCK B1       MODEL: BATCHOP      HIERARCHY: B2                        TIME =      3.52

      UOS BLOCK B1       MODEL: BATCHOP      HIERARCHY: B2                        TIME =      3.61

      Integrating from 0.70000     to 0.71000     by 0.10000E-01 HR

      UOS BLOCK B2       MODEL: MIXER        HIERARCHY: B2                        TIME =      3.66
      KODE = 1   NO. TEMP ITER =    1     TEMP =  338.097    
      KPHASE =    2 KODE =    1 T =  338.097     P =  100000.     Q =  0.00000    

      UOS BLOCK B1       MODEL: BATCHOP      HIERARCHY: B2                        TIME =      3.67

      UOS BLOCK B1       MODEL: BATCHOP      HIERARCHY: B2                        TIME =      3.67

      Integrating from 0.71000     to 0.72000     by 0.10000E-01 HR

      UOS BLOCK B2       MODEL: MIXER        HIERARCHY: B2                        TIME =      3.67
      KODE = 1   NO. TEMP ITER =    1     TEMP =  338.097    
      KPHASE =    2 KODE =    1 T =  338.097     P =  100000.     Q =  0.00000    

      UOS BLOCK B1       MODEL: BATCHOP      HIERARCHY: B2                        TIME =      3.67

      UOS BLOCK B1       MODEL: BATCHOP      HIERARCHY: B2                        TIME =      3.67

      Integrating from 0.72000     to 0.73000     by 0.10000E-01 HR

      UOS BLOCK B2       MODEL: MIXER        HIERARCHY: B2                        TIME =      3.67
      KODE = 1   NO. TEMP ITER =    1     TEMP =  338.097    
      KPHASE =    2 KODE =    1 T =  338.097     P =  100000.     Q =  0.00000    

      UOS BLOCK B1       MODEL: BATCHOP      HIERARCHY: B2                        TIME =      3.67

      UOS BLOCK B1       MODEL: BATCHOP      HIERARCHY: B2                        TIME =      3.67

      Integrating from 0.73000     to 0.74000     by 0.10000E-01 HR

      UOS BLOCK B2       MODEL: MIXER        HIERARCHY: B2                        TIME =      3.67
      KODE = 1   NO. TEMP ITER =    1     TEMP =  338.097    
      KPHASE =    2 KODE =    1 T =  338.097     P =  100000.     Q =  0.00000    

      UOS BLOCK B1       MODEL: BATCHOP      HIERARCHY: B2                        TIME =      3.67

      UOS BLOCK B1       MODEL: BATCHOP      HIERARCHY: B2                        TIME =      3.67

      Integrating from 0.74000     to 0.75000     by 0.10000E-01 HR

      UOS BLOCK B2       MODEL: MIXER        HIERARCHY: B2                        TIME =      3.67
      KODE = 1   NO. TEMP ITER =    1     TEMP =  338.097    
      KPHASE =    2 KODE =    1 T =  338.097     P =  100000.     Q =  0.00000    

      UOS BLOCK B1       MODEL: BATCHOP      HIERARCHY: B2                        TIME =      3.67

      UOS BLOCK B1       MODEL: BATCHOP      HIERARCHY: B2                        TIME =      3.74

      Integrating from 0.75000     to 0.76000     by 0.10000E-01 HR

      UOS BLOCK B2       MODEL: MIXER        HIERARCHY: B2                        TIME =      3.79
      KODE = 1   NO. TEMP ITER =    1     TEMP =  338.097    
      KPHASE =    2 KODE =    1 T =  338.097     P =  100000.     Q =  0.00000    

      UOS BLOCK B1       MODEL: BATCHOP      HIERARCHY: B2                        TIME =      3.79

      UOS BLOCK B1       MODEL: BATCHOP      HIERARCHY: B2                        TIME =      3.79

      Integrating from 0.76000     to 0.77000     by 0.10000E-01 HR

      UOS BLOCK B2       MODEL: MIXER        HIERARCHY: B2                        TIME =      3.79
      KODE = 1   NO. TEMP ITER =    1     TEMP =  338.097    
      KPHASE =    2 KODE =    1 T =  338.097     P =  100000.     Q =  0.00000    

      UOS BLOCK B1       MODEL: BATCHOP      HIERARCHY: B2                        TIME =      3.79

      UOS BLOCK B1       MODEL: BATCHOP      HIERARCHY: B2                        TIME =      3.79

      Integrating from 0.77000     to 0.78000     by 0.10000E-01 HR

      UOS BLOCK B2       MODEL: MIXER        HIERARCHY: B2                        TIME =      3.79
      KODE = 1   NO. TEMP ITER =    1     TEMP =  338.097    
      KPHASE =    2 KODE =    1 T =  338.097     P =  100000.     Q =  0.00000    

      UOS BLOCK B1       MODEL: BATCHOP      HIERARCHY: B2                        TIME =      3.79

      UOS BLOCK B1       MODEL: BATCHOP      HIERARCHY: B2                        TIME =      3.79

      Integrating from 0.78000     to 0.79000     by 0.10000E-01 HR

      UOS BLOCK B2       MODEL: MIXER        HIERARCHY: B2                        TIME =      3.79
      KODE = 1   NO. TEMP ITER =    1     TEMP =  338.097    
      KPHASE =    2 KODE =    1 T =  338.097     P =  100000.     Q =  0.00000    

      UOS BLOCK B1       MODEL: BATCHOP      HIERARCHY: B2                        TIME =      3.79

      UOS BLOCK B1       MODEL: BATCHOP      HIERARCHY: B2                        TIME =      3.79

      Integrating from 0.79000     to 0.80000     by 0.10000E-01 HR

      UOS BLOCK B2       MODEL: MIXER        HIERARCHY: B2                        TIME =      3.79
      KODE = 1   NO. TEMP ITER =    1     TEMP =  338.097    
      KPHASE =    2 KODE =    1 T =  338.097     P =  100000.     Q =  0.00000    

      UOS BLOCK B1       MODEL: BATCHOP      HIERARCHY: B2                        TIME =      3.79

      UOS BLOCK B1       MODEL: BATCHOP      HIERARCHY: B2                        TIME =      3.86

      Integrating from 0.80000     to 0.81000     by 0.10000E-01 HR

      UOS BLOCK B2       MODEL: MIXER        HIERARCHY: B2                        TIME =      3.93
      KODE = 1   NO. TEMP ITER =    1     TEMP =  338.097    
      KPHASE =    2 KODE =    1 T =  338.097     P =  100000.     Q =  0.00000    

      UOS BLOCK B1       MODEL: BATCHOP      HIERARCHY: B2                        TIME =      3.93

      UOS BLOCK B1       MODEL: BATCHOP      HIERARCHY: B2                        TIME =      3.93

      Integrating from 0.81000     to 0.82000     by 0.10000E-01 HR

      UOS BLOCK B2       MODEL: MIXER        HIERARCHY: B2                        TIME =      3.93
      KODE = 1   NO. TEMP ITER =    1     TEMP =  338.097    
      KPHASE =    2 KODE =    1 T =  338.097     P =  100000.     Q =  0.00000    

      UOS BLOCK B1       MODEL: BATCHOP      HIERARCHY: B2                        TIME =      3.93

      UOS BLOCK B1       MODEL: BATCHOP      HIERARCHY: B2                        TIME =      3.93

      Integrating from 0.82000     to 0.83000     by 0.10000E-01 HR

      UOS BLOCK B2       MODEL: MIXER        HIERARCHY: B2                        TIME =      3.93
      KODE = 1   NO. TEMP ITER =    1     TEMP =  338.097    
      KPHASE =    2 KODE =    1 T =  338.097     P =  100000.     Q =  0.00000    

      UOS BLOCK B1       MODEL: BATCHOP      HIERARCHY: B2                        TIME =      3.93

      UOS BLOCK B1       MODEL: BATCHOP      HIERARCHY: B2                        TIME =      3.93

      Integrating from 0.83000     to 0.84000     by 0.10000E-01 HR

      UOS BLOCK B2       MODEL: MIXER        HIERARCHY: B2                        TIME =      3.93
      KODE = 1   NO. TEMP ITER =    1     TEMP =  338.097    
      KPHASE =    2 KODE =    1 T =  338.097     P =  100000.     Q =  0.00000    

      UOS BLOCK B1       MODEL: BATCHOP      HIERARCHY: B2                        TIME =      3.93

      UOS BLOCK B1       MODEL: BATCHOP      HIERARCHY: B2                        TIME =      3.93

      Integrating from 0.84000     to 0.85000     by 0.10000E-01 HR

      UOS BLOCK B2       MODEL: MIXER        HIERARCHY: B2                        TIME =      3.93
      KODE = 1   NO. TEMP ITER =    1     TEMP =  338.097    
      KPHASE =    2 KODE =    1 T =  338.097     P =  100000.     Q =  0.00000    

      UOS BLOCK B1       MODEL: BATCHOP      HIERARCHY: B2                        TIME =      3.93

[...]

      CONVERGENCE BLOCK $OLVER04  METHOD: WEGSTEIN                                TIME =     65.48
      ITER   0 For Tear Streams: GCHOT

      UOS BLOCK HEATX2   MODEL: HEATX                                             TIME =     65.48

  *   WARNING WHILE EXECUTING UNIT OPERATIONS BLOCK: "HEATX2" (MODEL: "HEATX")  
                                                               (UHE02I.1)       
      AT LEAST ONE FEED HAS ZERO FLOW                                           
      BLOCK BYPASSED                                                            

      UOS BLOCK B8       MODEL: RSTOIC                                            TIME =     65.48
      KODE = 2  NTRIAL =   2  T = 413.1500  P =  3000.00      V = 0.657579      Q =  58486.1    

      UOS BLOCK B12      MODEL: CFUGE                                             TIME =     65.49

  *   WARNING WHILE EXECUTING UNIT OPERATIONS BLOCK: "B12" (MODEL: "CFUGE")     
                                                               (ERRORPRI.25)    
      VAPOR PHASE PRESENT AT INLET. VAPOR PHASE WILL BE COPIED TO LIQUID        
      OUTLET AND OTHERWISE IGNORED WHEN CALCULATING THE LIQUID/SOLID FLOW       
      SPLIT.                                                                    

      UOS BLOCK B13      MODEL: FLASH2                                            TIME =     65.49
      KODE = 1  NTRIAL =   9  T = 424.0768  P =  50000.0      V = 0.641281      Q =  0.00000    

      UOS BLOCK B15      MODEL: PUMP                                              TIME =     65.49
      VOL-FLOW   =  0.6245E-04 , DELTA P    =  0.5000E+05 , PUMP EFF   =  0.2957    
      FLUID PWR  =   3.122     , BRAKE PWR  =   10.56     , ELEC PWR   =   10.56    

      UOS BLOCK B14      MODEL: RADFRAC                                           TIME =     65.49

       Convergence iterations:
         OL   ML   IL     Err/Tol
          1    1    4      378.36    
          2    1    3      196.20    
          3    1    3      4.2019    
          4    1    3      2.0461    
          5    1    3     0.15379    

      CONVERGENCE BLOCK $OLVER04  METHOD: WEGSTEIN                                TIME =     65.50
      ITER   1 For Tear Streams: GCHOT

      --FLASH TEAR STREAM GCHOT   
      KODE = 1  NTRIAL =   5  T = 594.6373  P =  100000.      V = 3.757710E-06  Q =  0.00000    

  LOOP $OLVER04 ITER    1:   6 VARS NOT CONVERGED, MAX ERR/TOL     0.10000E+07    TIME =     65.95

      UOS BLOCK HEATX2   MODEL: HEATX                                             TIME =     65.96
      SPECIFICATION: COLD OUTLET TEMP      413.15    
      FLOW TYPE:     COUNTERCURRENT  
      HOT:  TIN=  594.64  PIN=0.10000E+06   TOUT=  469.20  POUT=0.10000E+06
      COLD: TIN=  337.57  PIN=0.10000E+06   TOUT=  413.15  POUT=0.10000E+06
                              DUTY= 17621.    

      UOS BLOCK B8       MODEL: RSTOIC                                            TIME =     65.96
      KODE = 2  NTRIAL =   1  T = 413.1500  P =  3000.00      V = 0.657579      Q =  40865.6    

      UOS BLOCK B12      MODEL: CFUGE                                             TIME =     65.96

  *   WARNING WHILE EXECUTING UNIT OPERATIONS BLOCK: "B12" (MODEL: "CFUGE")     
                                                               (ERRORPRI.25)    
      VAPOR PHASE PRESENT AT INLET. VAPOR PHASE WILL BE COPIED TO LIQUID        
      OUTLET AND OTHERWISE IGNORED WHEN CALCULATING THE LIQUID/SOLID FLOW       
      SPLIT.                                                                    

      UOS BLOCK B13      MODEL: FLASH2                                            TIME =     65.97
      KODE = 1  NTRIAL =   1  T = 424.0768  P =  50000.0      V = 0.641281      Q =  0.00000    

      UOS BLOCK B15      MODEL: PUMP                                              TIME =     65.97
      VOL-FLOW   =  0.6245E-04 , DELTA P    =  0.5000E+05 , PUMP EFF   =  0.2957    
      FLUID PWR  =   3.122     , BRAKE PWR  =   10.56     , ELEC PWR   =   10.56    

      UOS BLOCK B14      MODEL: RADFRAC                                           TIME =     65.97

       Convergence iterations:
         OL   ML   IL     Err/Tol
          1    1    2     0.51025E-01

      CONVERGENCE BLOCK $OLVER04  METHOD: WEGSTEIN                                TIME =     65.97
      ITER   2 For Tear Streams: GCHOT

  LOOP $OLVER04 ITER    2:     *** CONVERGED *** , MAX ERR/TOL     0.12130        TIME =     65.97

      GENERATING RESULTS FOR UOS BLOCK B5       MODEL: HEATER                     TIME =     65.98

      GENERATING RESULTS FOR UOS BLOCK B15      MODEL: PUMP                       TIME =     65.98
      KODE = 5  NTRIAL =   3  T = 424.0768  P =  50000.0      V =  0.00000      Q = 2.813280E-07
      VOL-FLOW   =  0.6245E-04 , DELTA P    =  0.5000E+05 , PUMP EFF   =  0.2957    
      FLUID PWR  =   3.122     , BRAKE PWR  =   10.56     , ELEC PWR   =   10.56    
      NPSH AVAIL =   0.000    

      GENERATING RESULTS FOR UOS BLOCK HEATX1   MODEL: HEATX                      TIME =     65.98

  *   WARNING WHILE GENERATING RESULTS FOR UNIT OPERATIONS BLOCK: "HEATX1"      
      (MODEL: "HEATX")                                         (UHE02I.10)      
      CALCULATED FEED TEMPERATURE FOR THE COLD SIDE (3.5380619D+02)             
      IS INCONSISTENT WITH ITS INLET STREAM VALUE (3.3815000D+02)               
      PROBABLE CAUSE: LOOSE FLASH TOLERANCE, OR UPSTREAM BLOCK WITH DIFFERENT   
      PHASE SPECIFICATIONS OR PROPERTY METHOD. THE CALCULATED VALUE WILL BE     
      USED IN CALCULATIONS.                                                     
      SPECIFICATION: COLD OUTLET TEMP      378.15    
      FLOW TYPE:     COUNTERCURRENT  
      HOT:  TIN=  617.59  PIN=0.10000E+06   TOUT=  559.68  POUT=0.10000E+06
      COLD: TIN=  353.81  PIN=0.10000E+06   TOUT=  378.15  POUT=0.10000E+06
      AREA=0.45252           DUTY= 85481.           FT=1.00000

      BEGIN HEATX TQ-CURVE CALCULATIONS FOR BLOCK HEATX1  

      BEGIN COLD-TQCURVE INLET   
      KODE = 1  NTRIAL =  12  T = 378.1500  P =  100000.      V = 0.410538      Q =  0.00000    
      KODE = 1  NTRIAL =   5  T = 376.2600  P =  100000.      V = 0.399034      Q =  0.00000    
      KODE = 1  NTRIAL =   5  T = 374.4501  P =  100000.      V = 0.386770      Q =  0.00000    
      KODE = 1  NTRIAL =   5  T = 372.7220  P =  100000.      V = 0.373738      Q =  0.00000    
      KODE = 1  NTRIAL =   5  T = 371.0762  P =  100000.      V = 0.359940      Q =  0.00000    
      KODE = 1  NTRIAL =   5  T = 369.5127  P =  100000.      V = 0.345382      Q =  0.00000    
      KODE = 1  NTRIAL =   5  T = 368.0308  P =  100000.      V = 0.330077      Q =  0.00000    
      KODE = 1  NTRIAL =   5  T = 366.6291  P =  100000.      V = 0.314040      Q =  0.00000    
      KODE = 1  NTRIAL =   5  T = 365.3056  P =  100000.      V = 0.297296      Q =  0.00000    
      KODE = 1  NTRIAL =   5  T = 364.0578  P =  100000.      V = 0.279869      Q =  0.00000    
      KODE = 1  NTRIAL =   5  T = 362.8829  P =  100000.      V = 0.261789      Q =  0.00000    
      KODE = 1  NTRIAL =   5  T = 361.7777  P =  100000.      V = 0.243087      Q =  0.00000    
      KODE = 1  NTRIAL =   5  T = 360.7389  P =  100000.      V = 0.223795      Q =  0.00000    
      KODE = 1  NTRIAL =   5  T = 359.7630  P =  100000.      V = 0.203946      Q =  0.00000    
      KODE = 1  NTRIAL =   5  T = 358.8464  P =  100000.      V = 0.183573      Q =  0.00000    
      KODE = 1  NTRIAL =   5  T = 357.9855  P =  100000.      V = 0.162710      Q =  0.00000    
      KODE = 1  NTRIAL =   5  T = 357.1770  P =  100000.      V = 0.141388      Q =  0.00000    
      KODE = 1  NTRIAL =   5  T = 356.4175  P =  100000.      V = 0.119638      Q =  0.00000    
      KODE = 1  NTRIAL =   5  T = 355.7036  P =  100000.      V = 9.748938E-02  Q =  0.00000    
      KODE = 1  NTRIAL =   5  T = 355.0324  P =  100000.      V = 7.496944E-02  Q =  0.00000    
      KODE = 1  NTRIAL =   5  T = 354.4008  P =  100000.      V = 5.210471E-02  Q =  0.00000    
      KODE = 1  NTRIAL =   5  T = 353.8062  P =  100000.      V = 2.891977E-02  Q =  0.00000    

      BEGIN HOT-TQCURVE  INLET   
      KODE = 1  NTRIAL =   7  T = 617.5946  P =  100000.      V = 1.465671E-07  Q =  0.00000    
      NO. TEMP ITER =    4     TEMP =  614.948    
      KODE = 1  NTRIAL =   2  T = 614.9477  P =  100000.      V =  0.00000      Q =  0.00000    
      KODE = 3  NTRIAL =   6  T = 617.5946  P =  100000.      V =  0.00000      Q =-2.539655E-02
      NO. TEMP ITER =    4     TEMP =  614.948    
      KODE = 1  NTRIAL =   2  T = 614.9477  P =  100000.      V =  0.00000      Q =  0.00000    
      NO. TEMP ITER =    5     TEMP =  612.290    
      KODE = 1  NTRIAL =   2  T = 612.2896  P =  100000.      V =  0.00000      Q =  0.00000    
      NO. TEMP ITER =    5     TEMP =  609.620    
      KODE = 1  NTRIAL =   2  T = 609.6203  P =  100000.      V =  0.00000      Q =  0.00000    
      NO. TEMP ITER =    5     TEMP =  606.940    
      KODE = 1  NTRIAL =   2  T = 606.9398  P =  100000.      V =  0.00000      Q =  0.00000    
      NO. TEMP ITER =    5     TEMP =  604.248    
      KODE = 1  NTRIAL =   2  T = 604.2481  P =  100000.      V =  0.00000      Q =  0.00000    
      NO. TEMP ITER =    5     TEMP =  601.545    
      KODE = 1  NTRIAL =   2  T = 601.5453  P =  100000.      V =  0.00000      Q =  0.00000    
      NO. TEMP ITER =    5     TEMP =  598.832    
      KODE = 1  NTRIAL =   2  T = 598.8315  P =  100000.      V =  0.00000      Q =  0.00000    
      NO. TEMP ITER =    5     TEMP =  596.107    
      KODE = 1  NTRIAL =   2  T = 596.1066  P =  100000.      V =  0.00000      Q =  0.00000    
      NO. TEMP ITER =    5     TEMP =  593.371    
      KODE = 1  NTRIAL =   2  T = 593.3707  P =  100000.      V =  0.00000      Q =  0.00000    
      NO. TEMP ITER =    4     TEMP =  590.624    
      KODE = 1  NTRIAL =   2  T = 590.6237  P =  100000.      V =  0.00000      Q =  0.00000    
      NO. TEMP ITER =    4     TEMP =  587.866    
      KODE = 1  NTRIAL =   2  T = 587.8658  P =  100000.      V =  0.00000      Q =  0.00000    
      NO. TEMP ITER =    4     TEMP =  585.097    
      KODE = 1  NTRIAL =   2  T = 585.0968  P =  100000.      V =  0.00000      Q =  0.00000    
      NO. TEMP ITER =    5     TEMP =  582.317    
      KODE = 1  NTRIAL =   2  T = 582.3169  P =  100000.      V =  0.00000      Q =  0.00000    
      NO. TEMP ITER =    5     TEMP =  579.526    
      KODE = 1  NTRIAL =   2  T = 579.5259  P =  100000.      V =  0.00000      Q =  0.00000    
      NO. TEMP ITER =    5     TEMP =  576.724    
      KODE = 1  NTRIAL =   2  T = 576.7240  P =  100000.      V =  0.00000      Q =  0.00000    
      NO. TEMP ITER =    5     TEMP =  573.911    
      KODE = 1  NTRIAL =   2  T = 573.9111  P =  100000.      V =  0.00000      Q =  0.00000    
      NO. TEMP ITER =    5     TEMP =  571.087    
      KODE = 1  NTRIAL =   2  T = 571.0872  P =  100000.      V =  0.00000      Q =  0.00000    
      NO. TEMP ITER =    5     TEMP =  568.252    
      KODE = 1  NTRIAL =   2  T = 568.2523  P =  100000.      V =  0.00000      Q =  0.00000    
      NO. TEMP ITER =    5     TEMP =  565.406    
      KODE = 1  NTRIAL =   2  T = 565.4063  P =  100000.      V =  0.00000      Q =  0.00000    
      NO. TEMP ITER =    5     TEMP =  562.549    
      KODE = 1  NTRIAL =   2  T = 562.5494  P =  100000.      V =  0.00000      Q =  0.00000    
      NO. TEMP ITER =    5     TEMP =  559.681    
      KODE = 1  NTRIAL =   2  T = 559.6813  P =  100000.      V =  0.00000      Q =  0.00000    

      BEGIN COLD-TQCURVE INLET   
      KODE = 1  NTRIAL =  14  T = 376.2600  P =  100000.      V = 0.399034      Q =  0.00000    

      BEGIN HOT-TQCURVE  INLET   
      END HEATX TQ-CURVE CALCULATIONS FOR BLOCK HEATX1  

      GENERATING RESULTS FOR UOS BLOCK HEATX2   MODEL: HEATX                      TIME =     66.00
      SPECIFICATION: COLD OUTLET TEMP      413.15    
      FLOW TYPE:     COUNTERCURRENT  
      HOT:  TIN=  594.64  PIN=0.10000E+06   TOUT=  469.20  POUT=0.10000E+06
      COLD: TIN=  337.57  PIN=0.10000E+06   TOUT=  413.15  POUT=0.10000E+06
      AREA=0.13354           DUTY= 17621.           FT=1.00000

      BEGIN HEATX TQ-CURVE CALCULATIONS FOR BLOCK HEATX2  

      BEGIN COLD-TQCURVE INLET   
      NO. TEMP ITER =    4     TEMP =  413.150    
      KODE = 1  NTRIAL =   3  T = 413.1500  P =  100000.      V =  0.00000      Q =  0.00000    
      NO. TEMP ITER =    4     TEMP =  409.637    
      KODE = 1  NTRIAL =   3  T = 409.6367  P =  100000.      V =  0.00000      Q =  0.00000    
      NO. TEMP ITER =    4     TEMP =  406.115    
      KODE = 1  NTRIAL =   3  T = 406.1150  P =  100000.      V =  0.00000      Q =  0.00000    
      NO. TEMP ITER =    4     TEMP =  402.585    
      KODE = 1  NTRIAL =   3  T = 402.5848  P =  100000.      V =  0.00000      Q =  0.00000    
      NO. TEMP ITER =    4     TEMP =  399.046    
      KODE = 1  NTRIAL =   3  T = 399.0461  P =  100000.      V =  0.00000      Q =  0.00000    
      NO. TEMP ITER =    5     TEMP =  395.499    
      KODE = 1  NTRIAL =   3  T = 395.4989  P =  100000.      V =  0.00000      Q =  0.00000    
      NO. TEMP ITER =    5     TEMP =  391.943    
      KODE = 1  NTRIAL =   3  T = 391.9432  P =  100000.      V =  0.00000      Q =  0.00000    
      NO. TEMP ITER =    5     TEMP =  388.379    
      KODE = 1  NTRIAL =   3  T = 388.3789  P =  100000.      V =  0.00000      Q =  0.00000    
      NO. TEMP ITER =    5     TEMP =  384.806    
      KODE = 1  NTRIAL =   3  T = 384.8060  P =  100000.      V =  0.00000      Q =  0.00000    
      NO. TEMP ITER =    5     TEMP =  381.224    
      KODE = 1  NTRIAL =   3  T = 381.2244  P =  100000.      V =  0.00000      Q =  0.00000    
      NO. TEMP ITER =    5     TEMP =  377.634    
      KODE = 1  NTRIAL =   3  T = 377.6342  P =  100000.      V =  0.00000      Q =  0.00000    
      NO. TEMP ITER =    5     TEMP =  374.035    
      KODE = 1  NTRIAL =   3  T = 374.0353  P =  100000.      V =  0.00000      Q =  0.00000    
      NO. TEMP ITER =    5     TEMP =  370.428    
      KODE = 1  NTRIAL =   3  T = 370.4277  P =  100000.      V =  0.00000      Q =  0.00000    
      NO. TEMP ITER =    5     TEMP =  366.811    
      KODE = 1  NTRIAL =   3  T = 366.8114  P =  100000.      V =  0.00000      Q =  0.00000    
      NO. TEMP ITER =    5     TEMP =  363.186    
      KODE = 1  NTRIAL =   3  T = 363.1863  P =  100000.      V =  0.00000      Q =  0.00000    
      NO. TEMP ITER =    5     TEMP =  359.552    
      KODE = 1  NTRIAL =   3  T = 359.5525  P =  100000.      V =  0.00000      Q =  0.00000    
      NO. TEMP ITER =    5     TEMP =  355.910    
      KODE = 1  NTRIAL =   3  T = 355.9099  P =  100000.      V =  0.00000      Q =  0.00000    
      NO. TEMP ITER =    5     TEMP =  352.259    
      KODE = 1  NTRIAL =   3  T = 352.2586  P =  100000.      V =  0.00000      Q =  0.00000    
      NO. TEMP ITER =    5     TEMP =  348.599    
      KODE = 1  NTRIAL =   3  T = 348.5986  P =  100000.      V =  0.00000      Q =  0.00000    
      NO. TEMP ITER =    5     TEMP =  344.930    
      KODE = 1  NTRIAL =   3  T = 344.9299  P =  100000.      V =  0.00000      Q =  0.00000    
      NO. TEMP ITER =    5     TEMP =  341.252    
      KODE = 1  NTRIAL =   3  T = 341.2524  P =  100000.      V =  0.00000      Q =  0.00000    
      NO. TEMP ITER =    5     TEMP =  337.566    
      KODE = 1  NTRIAL =   3  T = 337.5663  P =  100000.      V =  0.00000      Q =  0.00000    

      BEGIN HOT-TQCURVE  INLET   
      KODE = 1  NTRIAL =   5  T = 594.6373  P =  100000.      V = 3.723629E-06  Q =  0.00000    
      NO. TEMP ITER =    4     TEMP =  588.974    
      KODE = 1  NTRIAL =   2  T = 588.9736  P =  100000.      V =  0.00000      Q =  0.00000    
      KODE = 3  NTRIAL =   6  T = 594.6373  P =  100000.      V =  0.00000      Q =-0.134010    
      NO. TEMP ITER =    4     TEMP =  588.974    
      KODE = 1  NTRIAL =   2  T = 588.9736  P =  100000.      V =  0.00000      Q =  0.00000    
      NO. TEMP ITER =    5     TEMP =  583.278    
      KODE = 1  NTRIAL =   2  T = 583.2776  P =  100000.      V =  0.00000      Q =  0.00000    
      NO. TEMP ITER =    5     TEMP =  577.551    
      KODE = 1  NTRIAL =   2  T = 577.5505  P =  100000.      V =  0.00000      Q =  0.00000    
      NO. TEMP ITER =    4     TEMP =  571.792    
      KODE = 1  NTRIAL =   2  T = 571.7924  P =  100000.      V =  0.00000      Q =  0.00000    
      NO. TEMP ITER =    4     TEMP =  566.004    
      KODE = 1  NTRIAL =   2  T = 566.0035  P =  100000.      V =  0.00000      Q =  0.00000    
      NO. TEMP ITER =    4     TEMP =  560.184    
      KODE = 1  NTRIAL =   2  T = 560.1839  P =  100000.      V =  0.00000      Q =  0.00000    
      NO. TEMP ITER =    5     TEMP =  554.334    
      KODE = 1  NTRIAL =   3  T = 554.3335  P =  100000.      V =  0.00000      Q =  0.00000    
      NO. TEMP ITER =    5     TEMP =  548.453    
      KODE = 1  NTRIAL =   3  T = 548.4526  P =  100000.      V =  0.00000      Q =  0.00000    
      NO. TEMP ITER =    5     TEMP =  542.541    
      KODE = 1  NTRIAL =   3  T = 542.5410  P =  100000.      V =  0.00000      Q =  0.00000    
      NO. TEMP ITER =    5     TEMP =  536.599    
      KODE = 1  NTRIAL =   3  T = 536.5988  P =  100000.      V =  0.00000      Q =  0.00000    
      NO. TEMP ITER =    5     TEMP =  530.626    
      KODE = 1  NTRIAL =   3  T = 530.6260  P =  100000.      V =  0.00000      Q =  0.00000    
      NO. TEMP ITER =    5     TEMP =  524.623    
      KODE = 1  NTRIAL =   3  T = 524.6226  P =  100000.      V =  0.00000      Q =  0.00000    
      NO. TEMP ITER =    5     TEMP =  518.589    
      KODE = 1  NTRIAL =   3  T = 518.5886  P =  100000.      V =  0.00000      Q =  0.00000    
      NO. TEMP ITER =    5     TEMP =  512.524    
      KODE = 1  NTRIAL =   3  T = 512.5238  P =  100000.      V =  0.00000      Q =  0.00000    
      NO. TEMP ITER =    5     TEMP =  506.428    
      KODE = 1  NTRIAL =   3  T = 506.4283  P =  100000.      V =  0.00000      Q =  0.00000    
      NO. TEMP ITER =    5     TEMP =  500.302    
      KODE = 1  NTRIAL =   3  T = 500.3019  P =  100000.      V =  0.00000      Q =  0.00000    
      NO. TEMP ITER =    5     TEMP =  494.144    
      KODE = 1  NTRIAL =   3  T = 494.1445  P =  100000.      V =  0.00000      Q =  0.00000    
      NO. TEMP ITER =    5     TEMP =  487.956    
      KODE = 1  NTRIAL =   3  T = 487.9561  P =  100000.      V =  0.00000      Q =  0.00000    
      NO. TEMP ITER =    5     TEMP =  481.736    
      KODE = 1  NTRIAL =   3  T = 481.7364  P =  100000.      V =  0.00000      Q =  0.00000    
      NO. TEMP ITER =    5     TEMP =  475.486    
      KODE = 1  NTRIAL =   3  T = 475.4855  P =  100000.      V =  0.00000      Q =  0.00000    
      NO. TEMP ITER =    5     TEMP =  469.203    
      KODE = 1  NTRIAL =   3  T = 469.2032  P =  100000.      V =  0.00000      Q =  0.00000    

      BEGIN COLD-TQCURVE INLET   
      NO. TEMP ITER =    4     TEMP =  409.637    
      KODE = 1  NTRIAL =   3  T = 409.6367  P =  100000.      V =  0.00000      Q =  0.00000    

      BEGIN HOT-TQCURVE  INLET   
      END HEATX TQ-CURVE CALCULATIONS FOR BLOCK HEATX2  

      GENERATING RESULTS FOR UOS BLOCK B10      MODEL: HEATER                     TIME =     66.01
      STREAM CATOUT WILL BE FLASHED FOR PROPERTY CALCULATIONS.
      KODE = 1   NO. TEMP ITER =    1     TEMP =  338.128    
      KPHASE =    3 KODE =    1 T =  338.128     P =  100000.     Q =  0.00000    
      STREAM LAOOUT WILL BE FLASHED FOR PROPERTY CALCULATIONS.
      KODE = 1   NO. TEMP ITER =    1     TEMP =  425.180    
      KPHASE =    3 KODE =    1 T =  425.180     P =  100000.     Q =  0.00000    
