
 + + + + + + + + + + + + + + + + + + + + + + + + + + + + + + + + + + + + + + + +
 + + + + + + + + + + + + + + + + + + + + + + + + + + + + + + + + + + + + + + + +
 + +                                                                         + +
 + +                      ASPEN PLUS CALCULATION HISTORY                     + +
 + +                                                                         + +
 + + + + + + + + + + + + + + + + + + + + + + + + + + + + + + + + + + + + + + + +
 + + + + + + + + + + + + + + + + + + + + + + + + + + + + + + + + + + + + + + + +

 ASPEN PLUS IS A TRADEMARK OF           HOTLINE:
 ASPEN TECHNOLOGY, INC.                 U.S.A. 888/996-7100
 781/221-6400                           EUROPE (44) 1189-226555

 PLATFORM: WINDOWS                                       MARCH 27, 2020      
 VERSION: 36.0   Build 249                               FRIDAY      
 INSTALLATION:                                           4:20:49 P.M.        

 THIS COPY OF ASPEN PLUS LICENSED TO RENSSELAER POLYTECHNIC I        


      ASPEN PLUS (R) IS A PROPRIETARY PRODUCT OF ASPEN TECHNOLOGY, INC.
      (ASPENTECH), AND MAY BE USED ONLY UNDER AGREEMENT WITH ASPENTECH.
      RESTRICTED RIGHTS LEGEND:  USE, REPRODUCTION, OR DISCLOSURE BY THE
      U.S. GOVERNMENT IS SUBJECT TO RESTRICTIONS SET FORTH IN 
      (i) FAR 52.227-14, Alt. III, (ii) FAR 52.227-19, (iii) DFARS 
      252.227-7013(c)(1)(ii), or (iv) THE ACCOMPANYING LICENSE AGREEMENT,
      AS APPLICABLE. FOR PURPOSES OF THE FAR, THIS SOFTWARE SHALL BE DEEMED
      TO BE "UNPUBLISHED" AND LICENSED WITH DISCLOSURE PROHIBITIONS.
      CONTRACTOR/SUBCONTRACTOR: ASPEN TECHNOLOGY, INC. 20 CROSBY DRIVE,
      BEDFORD, MA 01730.
 *** INPUT SUMMARY ***

 >>CURRENT RUN

   ORIGINAL RUN                           MARCH 27, 2020      
   4:20:49 P.M.                           FRIDAY      
   INPUT FILE: _4547caa.inm
   RUN ID : _4547caa
          1    ;
          2    ;Input file created by Aspen Plus Rel. 36.0 at 16:20:46 Fri Mar 27, 2020
          3    ;Directory   Runid FULL DRAFT B21 TEST (1)
          4    ;
          5
          6
          7    DYNAMICS
          8        DYNAMICS RESULTS=ON
          9
         10    IN-UNITS MET PRESSURE=bar TEMPERATURE=C DELTA-T=C PDROP=bar  &
         11            INVERSE-PRES='1/bar' SHORT-LENGTH=mm
         12
         13    DEF-STREAMS CONVEN ALL
         14
         15    MODEL-OPTION
         16
         17    DATABANKS 'APV100 PURE36' / 'APV100 AQUEOUS' / 'APV100 SOLIDS' &
         18             / 'APV100 INORGANIC' / 'APESV100 AP-EOS' /  &
         19            'NISTV100 NIST-TRC' / NOASPENPCD
         20
         21    PROP-SOURCES 'APV100 PURE36' / 'APV100 AQUEOUS' /  &
         22            'APV100 SOLIDS' / 'APV100 INORGANIC' / 'APESV100 AP-EOS' &
         23             / 'NISTV100 NIST-TRC'
         24
         25    COMPONENTS
         26        GLYCEROL C3H8O3 /
         27        TRIOL-01 C57H104O6 /
         28        TRILI-01 C57H98O6 /
         29        METHA-01 CH4O /
         30        METHY-01 C19H36O2 /
         31        METHY-02 C19H34O2 /
         32        UREA CH4N2O /
         33        CALCI-01 CAO /
         34        LANTH-01 LA2O3 /
         35        AMMON-01 H3N /
         36        GLYCE-01 C4H6O4-N1 /
         37        NITROGEN N2 /
         38        WATER H2O /
         39        AIR AIR
         40
         41    CISOLID-COMPS CALCI-01 LANTH-01
         42
         43    SOLVE
         44        RUN-MODE MODE=SIM
         45
         46    FLOWSHEET
         47        HIERARCHY B2
         48        CONNECT $C-1 IN=S103 OUT="B2.S4"
         49        CONNECT $C-3 IN=CA101 OUT="B2.CATIN"
         50        CONNECT $C-2 IN="B2.S5" OUT=S104
         51        BLOCK B4 IN=S105 OUT=S106 S201
         52        BLOCK B3 IN=S104 OUT=S105 R101
         53        BLOCK B1 IN=OILS METHANOL OUT=S101
         54        BLOCK B6 IN=S107 OUT=R104 P101
         55        BLOCK B9 IN=S201 OUT=R201 S202
         56        BLOCK B8 IN=S204 CA201 OUT=S205
         57        BLOCK B12 IN=S205 OUT=S206 R204
         58        BLOCK B13 IN=S206 OUT=D203 S207
         59        BLOCK B14 IN=S208 OUT=R207 P201
         60        BLOCK B15 IN=S207 OUT=S208
         61        BLOCK HEATX1 IN=W101 S106 OUT=W102 S107
         62        BLOCK B11 IN=UREA S202 R208 OUT=S203
         63        BLOCK HEATX2 IN=P201 S203 OUT=P202 S204
         64        BLOCK B7 IN=R201 OUT=R202 D201
         65        BLOCK B17 IN=S101 R106 OUT=S102
         66        BLOCK B16 IN=R105 WATER OUT=R106 W101
         67        BLOCK B19 IN=R202 OUT=R203
         68        BLOCK B10 IN=S102 OUT=S103
         69        BLOCK B18 IN=R203 R104 OUT=R105
         70        BLOCK B5 IN=R207 W102 OUT=R208 W103
         71        BLOCK B20 IN=D203 W103 OUT=D204 W104
         72        BLOCK B21 IN=P202 W104 OUT=P203 W105
         73        BLOCK B23 IN=P101 OUT=P102
         74        BLOCK B26 IN=P102 OUT=D102 P103
         75        BLOCK B22 IN=R101 OUT=R102 D101
         76        BLOCK B25 IN=CAO R102 OUT=R103
         77        BLOCK B27 IN=R204 OUT=R205 D202
         78        BLOCK B28 IN=LAO R205 OUT=R206
         79        BLOCK B24 IN=R206 OUT=CA201
         80        BLOCK B29 IN=R103 OUT=CA101
         81        BLOCK COOLT IN=AIR W105 OUT=W107 W106
         82
         83    PROPERTIES SR-POLAR
         84        PROPERTIES IDEAL / NRTL
         85
         86    ESTIMATE ALL
         87
         88    PROP-DATA PCES-1
         89        IN-UNITS MET PRESSURE=bar TEMPERATURE=C DELTA-T=C PDROP=bar  &
         90            INVERSE-PRES='1/bar' SHORT-LENGTH=mm
         91        PROP-LIST OMEGA / DHVLB / VB / RGYR / RKTZRA / VLSTD
         92        PVAL UREA .5992461800 / 20985.95586 / 48.82570000 /  &
         93            2.6000000E-10 / .2351731880 / 48.82570000
         94        PROP-LIST RKTZRA / VLSTD
         95        PVAL CALCI-01 .2918596200 / 298.9063450
         96        PVAL GLYCE-01 .2037543860 / 69.23640000
         97        PROP-LIST VLSTD
         98        PVAL AIR 32.91470000
         99
        100    PROP-DATA DHVLWT-1
        101        IN-UNITS MET PRESSURE=bar TEMPERATURE=C DELTA-T=C PDROP=bar  &
        102            INVERSE-PRES='1/bar' SHORT-LENGTH=mm
        103        PROP-LIST DHVLWT
        104        PVAL CALCI-01 5.38817025E+5 3396.850000 .3800000000 0.0  &
        105            3396.850000
        106
        107    PROP-DATA KLDIP-1
        108        IN-UNITS MET PRESSURE=bar TEMPERATURE=C DELTA-T=C PDROP=bar  &
        109            INVERSE-PRES='1/bar' SHORT-LENGTH=mm
        110        PROP-LIST KLDIP
        111        PVAL UREA .0494897448 1.57543997E-3 -1.0085909E-5  &
        112            2.44404255E-8 -2.254923E-11 191.8500000 424.8000000
        113        PVAL CALCI-01 -.6218197112 7.78300188E-4 -2.8775749E-7  &
        114            4.5627261E-11 -2.727830E-15 3396.850000 5686.650000
        115
        116    PROP-DATA MULAND-1
        117        IN-UNITS MET PRESSURE=bar TEMPERATURE=C DELTA-T=C PDROP=bar  &
        118            INVERSE-PRES='1/bar' SHORT-LENGTH=mm
        119        PROP-LIST MULAND
        120        PVAL UREA 129.3349773 -7951.576030 -18.41338230 191.8500000  &
        121            424.8000000
        122        PVAL CALCI-01 81.01615608 -12127.32210 -10.25255770  &
        123            1126.850000 1706.850000
        124
        125    PROP-DATA PLXANT-1
        126        IN-UNITS MET PRESSURE=bar TEMPERATURE=C DELTA-T=C PDROP=bar  &
        127            INVERSE-PRES='1/bar' SHORT-LENGTH=mm
        128        PROP-LIST PLXANT
        129        PVAL UREA 77.19179774 -10639.35530 0.0 0.0 -8.846083610  &
        130            3.4142003E-18 6.000000000 191.8500000 431.8500000
        131
        132    PROP-DATA SIGDIP-1
        133        IN-UNITS MET PRESSURE=bar TEMPERATURE=C DELTA-T=C PDROP=bar  &
        134            INVERSE-PRES='1/bar' SHORT-LENGTH=mm
        135        PROP-LIST SIGDIP
        136        PVAL UREA 156.7709600 1.222222220 5.9537296E-10  &
        137            -6.635066E-10 2.6632382E-10 191.8500000 417.7500000
        138        PVAL GLYCE-01 156.3532160 1.222222220 5.9089352E-10  &
        139            -6.640628E-10 2.6313812E-10 323.7990000 543.1900000
        140        PVAL CALCI-01 139.2135830 1.222222220 -2.171954E-10  &
        141            2.3955375E-10 -9.673330E-11 3396.850000 5626.450000
        142
        143    PROP-DATA SIGDIP-1
        144        IN-UNITS MET PRESSURE=bar TEMPERATURE=C DELTA-T=C PDROP=bar  &
        145            INVERSE-PRES='1/bar' SHORT-LENGTH=mm
        146        PROP-LIST SIGDIP
        147        PVAL AIR 26.91910850 1.222222220 4.4891197E-10  &
        148            -4.938161E-10 1.9962172E-10 -194.4800000 -143.3490000
        149
        150    PROP-DATA BWRKT-1
        151        IN-UNITS MET PRESSURE=bar TEMPERATURE=C DELTA-T=C PDROP=bar  &
        152            INVERSE-PRES='1/bar' SHORT-LENGTH=mm
        153        PROP-LIST BWRKT
        154        BPVAL NITROGEN WATER -.3032300000
        155        BPVAL WATER NITROGEN -.3032300000
        156
        157    PROP-DATA BWRKV-1
        158        IN-UNITS MET PRESSURE=bar TEMPERATURE=C DELTA-T=C PDROP=bar  &
        159            INVERSE-PRES='1/bar' SHORT-LENGTH=mm
        160        PROP-LIST BWRKV
        161        BPVAL NITROGEN WATER .1032000000
        162        BPVAL WATER NITROGEN .1032000000
        163
        164    PROP-DATA HOCETA-1
        165        IN-UNITS MET PRESSURE=bar TEMPERATURE=C DELTA-T=C PDROP=bar  &
        166            INVERSE-PRES='1/bar' SHORT-LENGTH=mm
        167        PROP-LIST HOCETA
        168        BPVAL METHA-01 METHA-01 1.630000000
        169        BPVAL METHA-01 AMMON-01 .2000000000
        170        BPVAL METHA-01 WATER 1.550000000
        171        BPVAL AMMON-01 METHA-01 .2000000000
        172        BPVAL AMMON-01 WATER .2000000000
        173        BPVAL WATER METHA-01 1.550000000
        174        BPVAL WATER AMMON-01 .2000000000
        175        BPVAL WATER WATER 1.700000000
        176
        177    PROP-DATA NRTL-1
        178        IN-UNITS MET PRESSURE=bar TEMPERATURE=C DELTA-T=C PDROP=bar  &
        179            INVERSE-PRES='1/bar' SHORT-LENGTH=mm
        180        PROP-LIST NRTL
        181        BPVAL GLYCEROL METHA-01 0.0 -218.5217000 .3000000000 0.0  &
        182            0.0 0.0 25.00000000 62.50000000
        183        BPVAL METHA-01 GLYCEROL 0.0 547.8301000 .3000000000 0.0  &
        184            0.0 0.0 25.00000000 62.50000000
        185        BPVAL GLYCEROL WATER -.7318000000 170.9167000 .3000000000  &
        186            0.0 0.0 0.0 25.00000000 290.0000000
        187        BPVAL WATER GLYCEROL -1.251500000 272.6075000 .3000000000  &
        188            0.0 0.0 0.0 25.00000000 290.0000000
        189        BPVAL METHA-01 WATER -.6930000000 172.9871000 .3000000000  &
        190            0.0 0.0 0.0 24.99000000 100.0000000
        191        BPVAL WATER METHA-01 2.732200000 -617.2687000 .3000000000  &
        192            0.0 0.0 0.0 24.99000000 100.0000000
        193        BPVAL AMMON-01 WATER 9.612100000 -3232.815900 .3000000000  &
        194            0.0 0.0 0.0 10.00000000 91.50000000
        195        BPVAL WATER AMMON-01 -6.268400000 1525.454300 .3000000000  &
        196            0.0 0.0 0.0 10.00000000 91.50000000
        197
        198    STREAM AIR
        199        SUBSTREAM MIXED TEMP=25. PRES=1. MOLE-FLOW=225.
        200        MOLE-FRAC AIR 1.
        201
        202    STREAM CAO
        203        SUBSTREAM MIXED TEMP=25. PRES=1. MOLE-FLOW=66. <mol/hr>
        204        MOLE-FRAC CALCI-01 1.
        205
        206    STREAM LAO
        207        SUBSTREAM MIXED TEMP=25. PRES=1. MASS-FLOW=2.
        208        MOLE-FRAC LANTH-01 1.
        209
        210    STREAM METHANOL
        211        SUBSTREAM MIXED TEMP=25. PRES=1. MOLE-FLOW=14536. <mol/hr>
        212        MOLE-FRAC METHA-01 1.
        213
        214    STREAM OILS
        215        SUBSTREAM MIXED TEMP=25. PRES=1. MOLE-FLOW=2200. <mol/hr>
        216        MOLE-FRAC TRIOL-01 0.6 / TRILI-01 0.4
        217
        218    STREAM UREA
        219        SUBSTREAM MIXED TEMP=25. PRES=1. MASS-FLOW=150.
        220        MOLE-FRAC UREA 1.
        221
        222    STREAM WATER
        223        SUBSTREAM MIXED TEMP=25. PRES=1. MOLE-FLOW=225.
        224        MOLE-FRAC WATER 1.
        225
        226    BLOCK B1 MIXER
        227        PARAM PRES=1. NPHASE=1 PHASE=L TOL=0.01 T-EST=25.
        228        PROPERTIES IDEAL FREE-WATER=STEAM-TA SOLU-WATER=3  &
        229            TRUE-COMPS=YES
        230        BLOCK-OPTION FREE-WATER=NO
        231
        232    BLOCK B11 MIXER
        233        PARAM PRES=1.
        234
        235    BLOCK B17 MIXER
        236        PARAM PRES=1. NPHASE=1 PHASE=L
        237        PROPERTIES IDEAL FREE-WATER=STEAM-TA SOLU-WATER=3  &
        238            TRUE-COMPS=YES
        239        BLOCK-OPTION FREE-WATER=NO
        240
        241    BLOCK B18 MIXER
        242        PARAM
        243
        244    BLOCK B25 MIXER
        245        PARAM PRES=1. NPHASE=1 PHASE=S
        246        BLOCK-OPTION FREE-WATER=NO
        247
        248    BLOCK B28 MIXER
        249        PARAM PRES=1. NPHASE=1 PHASE=S
        250        BLOCK-OPTION FREE-WATER=NO
        251
        252    BLOCK B7 FSPLIT
        253        FRAC R202 0.99
        254
        255    BLOCK B22 FSPLIT
        256        FRAC R102 0.9
        257
        258    BLOCK B27 FSPLIT
        259        FRAC R205 0.9
        260
        261    BLOCK B10 HEATER
        262        PARAM TEMP=65. PRES=1. NPHASE=1 PHASE=L DPPARMOPT=NO
        263        BLOCK-OPTION FREE-WATER=NO
        264
        265    BLOCK B23 HEATER
        266        PARAM TEMP=115. PRES=1. DPPARMOPT=NO
        267        PROPERTIES NRTL FREE-WATER=STEAM-TA SOLU-WATER=3  &
        268            TRUE-COMPS=YES
        269
        270    BLOCK B24 HEATER
        271        PARAM TEMP=600. PRES=1. NPHASE=1 PHASE=S DPPARMOPT=NO
        272        BLOCK-OPTION FREE-WATER=NO
        273
        274    BLOCK B29 HEATER
        275        PARAM TEMP=600. PRES=1. NPHASE=1 PHASE=S DPPARMOPT=NO
        276        BLOCK-OPTION FREE-WATER=NO
        277
        278    BLOCK B9 FLASH2
        279        PARAM TEMP=100. PRES=0.2 MAXIT=30
        280        PROPERTIES SR-POLAR FREE-WATER=STEAM-TA SOLU-WATER=3  &
        281            TRUE-COMPS=YES
        282
        283    BLOCK B13 FLASH2
        284        PARAM PRES=0.5 DUTY=0.
        285
        286    BLOCK B26 FLASH2
        287        PARAM PRES=0.2 DUTY=0.
        288        PROPERTIES NRTL FREE-WATER=STEAM-TA SOLU-WATER=3  &
        289            TRUE-COMPS=YES
        290
        291    BLOCK COOLT FLASH2
        292        PARAM PRES=1. DUTY=0.
        293
        294    BLOCK B4 DECANTER
        295        PARAM TEMP=65. PRES=1. LL-METH=EQ-SOLVE L2-COMPS=METHA-01  &
        296            L2-CUTOFF=0.5 MAXIT=30
        297
        298    BLOCK B5 HEATX
        299        PARAM T-HOT=140. CALC-TYPE=DESIGN U-OPTION=PHASE  &
        300            F-OPTION=CONSTANT CALC-METHOD=SHORTCUT
        301        FEEDS HOT=R207 COLD=W102
        302        OUTLETS-HOT R208
        303        OUTLETS-COLD W103
        304        HOT-SIDE DP-OPTION=CONSTANT DPPARMOPT=NO
        305        COLD-SIDE DP-OPTION=CONSTANT DPPARMOPT=NO
        306        TQ-PARAM CURVE=YES
        307
        308    BLOCK B16 HEATX
        309        PARAM T-HOT=63. CALC-TYPE=DESIGN TYPE=COUNTERCURRE  &
        310            PRES-HOT=1. U-OPTION=PHASE F-OPTION=CONSTANT  &
        311            CALC-METHOD=SHORTCUT
        312        FEEDS HOT=R105 COLD=WATER
        313        OUTLETS-HOT R106
        314        OUTLETS-COLD W101
        315        PROPERTIES NRTL FREE-WATER=STEAM-TA SOLU-WATER=3  &
        316            TRUE-COMPS=YES / STEAM-TA FREE-WATER=STEAM-TA  &
        317            SOLU-WATER=3 TRUE-COMPS=YES
        318        HOT-SIDE DP-OPTION=CONSTANT DPPARMOPT=NO
        319        COLD-SIDE DP-OPTION=CONSTANT DPPARMOPT=NO
        320        TQ-PARAM CURVE=YES
        321
        322    BLOCK B20 HEATX
        323        PARAM T-HOT=90. CALC-TYPE=DESIGN U-OPTION=PHASE  &
        324            F-OPTION=CONSTANT CALC-METHOD=SHORTCUT
        325        FEEDS HOT=D203 COLD=W103
        326        OUTLETS-HOT D204
        327        OUTLETS-COLD W104
        328        HOT-SIDE DP-OPTION=CONSTANT DPPARMOPT=NO
        329        COLD-SIDE DP-OPTION=CONSTANT DPPARMOPT=NO
        330        TQ-PARAM CURVE=YES
        331
        332    BLOCK B21 HEATX
        333        PARAM CALC-TYPE=SIMULATION PRES-HOT=0.998848186  &
        334            PRES-COLD=0.968636366 LMTD-CORRECT=0.928772334  &
        335            U-OPTION=CONSTANT F-OPTION=CONSTANT CALC-METHOD=SHORTCUT  &
        336            UA=126.294659
        337        FEEDS HOT=P202 COLD=W104
        338        OUTLETS-HOT P203
        339        OUTLETS-COLD W105
        340        HEAT-TR-COEF U=0.00931773042
        341        HOT-SIDE DP-OPTION=CONSTANT DPPARMOPT=NO
        342        COLD-SIDE DP-OPTION=CONSTANT DPPARMOPT=NO
        343        TQ-PARAM CURVE=YES
        344
        345    BLOCK HEATX1 HEATX
        346        PARAM T-COLD=80. CALC-TYPE=DESIGN TYPE=COUNTERCURRE  &
        347            U-OPTION=PHASE F-OPTION=CONSTANT CALC-METHOD=SHORTCUT
        348        FEEDS HOT=W101 COLD=S106
        349        OUTLETS-HOT W102
        350        OUTLETS-COLD S107
        351        PROPERTIES NRTL FREE-WATER=STEAM-TA SOLU-WATER=3  &
        352            TRUE-COMPS=YES / NRTL FREE-WATER=STEAM-TA SOLU-WATER=3  &
        353            TRUE-COMPS=YES
        354        HOT-SIDE DP-OPTION=CONSTANT DPPARMOPT=NO
        355        COLD-SIDE DP-OPTION=CONSTANT DPPARMOPT=NO
        356        TQ-PARAM CURVE=YES
        357
        358    BLOCK HEATX2 HEATX
        359        PARAM T-COLD=140. CALC-TYPE=DESIGN U-OPTION=PHASE  &
        360            F-OPTION=CONSTANT CALC-METHOD=SHORTCUT
        361        FEEDS HOT=P201 COLD=S203
        362        OUTLETS-HOT P202
        363        OUTLETS-COLD S204
        364        HOT-SIDE DP-OPTION=CONSTANT DPPARMOPT=NO
        365        COLD-SIDE DP-OPTION=CONSTANT DPPARMOPT=NO
        366        TQ-PARAM CURVE=YES
        367
        368    BLOCK B6 RADFRAC
        369        PARAM NSTAGE=3 ALGORITHM=NONIDEAL INIT-OPTION=STANDARD  &
        370            MAXOL=200 DAMPING=NONE
        371        COL-CONFIG CONDENSER=PARTIAL-V
        372        FEEDS S107 2 ON-STAGE
        373        PRODUCTS P101 3 L / R104 1 V
        374        P-SPEC 1 1. / 2 1.
        375        COL-SPECS MASS-D:F=0.17 MASS-RR=3.
        376        PROPERTIES IDEAL FREE-WATER=STEAM-TA SOLU-WATER=3  &
        377            TRUE-COMPS=YES
        378
        379    BLOCK B14 RADFRAC
        380        PARAM NSTAGE=16 ALGORITHM=STANDARD MAXOL=25 DAMPING=NONE
        381        COL-CONFIG CONDENSER=PARTIAL-V
        382        FEEDS S208 10
        383        PRODUCTS R207 1 V / P201 16 L
        384        P-SPEC 1 1.
        385        COL-SPECS MASS-D:F=0.18 MOLE-RR=3.
        386
        387    BLOCK B8 RSTOIC
        388        PARAM TEMP=140. PRES=3. <kPa>
        389        STOIC 1 MIXED GLYCEROL -1. / UREA -1. / AMMON-01 2. /  &
        390            GLYCE-01 1.
        391        CONV 1 MIXED GLYCEROL 0.85
        392
        393    HIERARCHY B2
        394
        395
        396    DEF-STREAMS CONVEN ALL
        397
        398    SOLVE
        399        PARAM METHOD=SM PROCESS=BATCH
        400        RUN-MODE MODE=SIM
        401
        402    FLOWSHEET
        403        BLOCK B1 IN=S1 OUT=S5
        404        BLOCK B2 IN=S4 CATIN OUT=S1
        405
        406    PROPERTIES SR-POLAR FREE-WATER=STEAM-TA SOLU-WATER=3  &
        407            TRUE-COMPS=YES
        408        PROPERTIES IDEAL / NRTL
        409
        410    BLOCK B2 MIXER
        411        PARAM PRES=1. NPHASE=1 PHASE=L
        412        PROPERTIES SR-POLAR FREE-WATER=STEAM-TA SOLU-WATER=3  &
        413            TRUE-COMPS=YES
        414        BLOCK-OPTION FREE-WATER=NO
        415
        416    BLOCK B1 BATCHOP
        417        PARAM TYPE=T-SPEC PRES=1. TEMP=65. NPHASE=1 PHASE=L
        418        INIT-COND FEED-TIME=1.
        419        DISCHARGE DISCHARGE-T=1.
        420        REACTIONS RXN-IDS=R-1 R-2
        421        BLOCK-OPTION FREE-WATER=NO
        422
        423    EO-CONV-OPTI
        424
        425    BATCH-OPTS
        426        PARAM MAX-TIME=6. OUTPUT-INT=0.05
        427
        428    ENDHIERARCHY B2
        429
        430    BLOCK B15 PUMP
        431        PARAM DELP=0.5
        432
        433    BLOCK B19 COMPR
        434        PARAM TYPE=ISENTROPIC DELP=0.8 NPHASE=2 SB-MAXIT=30  &
        435            SB-TOL=0.0001
        436        BLOCK-OPTION FREE-WATER=NO
        437
        438    BLOCK B3 CFUGE
        439        PARAM TYPE=SOLIDS-SEP NPHASE=2 PRES=1. DELT=0.
        440        SOLIDS-SEP SOLID-SPLIT=1. FLUID-SPLIT=1.
        441        PROPERTIES NRTL FREE-WATER=STEAM-TA SOLU-WATER=3  &
        442            TRUE-COMPS=YES
        443
        444    BLOCK B12 CFUGE
        445        PARAM TYPE=SOLIDS-SEP NPHASE=2 PRES=1.
        446        SOLIDS-SEP SOLID-SPLIT=1. FLUID-SPLIT=1.
        447
        448    EO-CONV-OPTI
        449
        450    STREAM-REPOR MOLEFLOW
        451
        452    PROPERTY-REP PCES
        453
        454    REACTIONS R-1 LHHW
        455        REAC-DATA 1
        456        RATE-CON 1 PRE-EXP=0.07 ACT-ENERGY=16.6 <kJ/mol>
        457        STOIC 1 MIXED TRIOL-01 -1. / METHA-01 -3. / METHY-01 3. / &
        458            GLYCEROL 1.
        459        DFORCE-EXP-1 1 MIXED TRIOL-01 1. / MIXED METHA-01 0. /  &
        460            MIXED METHY-01 0. / MIXED GLYCEROL 0.
        461        DFORCE-EQ-1 REACNO=1 A=0.
        462        DFORCE-EQ-2 REACNO=1 A=-52.95
        463
        464    REACTIONS R-2 LHHW
        465        REAC-DATA 1
        466        RATE-CON 1 PRE-EXP=0.07 ACT-ENERGY=16.6 <kJ/mol>
        467        STOIC 1 MIXED TRILI-01 -1. / METHA-01 -3. / GLYCEROL 1. / &
        468            METHY-02 3.
        469        DFORCE-EXP-1 1 MIXED TRILI-01 1. / MIXED METHA-01 0. /  &
        470            MIXED GLYCEROL 0. / MIXED METHY-02 0.
        471        DFORCE-EQ-1 REACNO=1 A=0.
        472        DFORCE-EQ-2 REACNO=1 A=-52.95
        473
        474    PROP-TABLE BINRY-2 PROPS
        475        IN-UNITS MET PRESSURE=bar TEMPERATURE=C DELTA-T=C PDROP=bar  &
        476            INVERSE-PRES='1/bar' SHORT-LENGTH=mm
        477        ANALYSIS ANAL-TYPE=GIBBS UNITS='cal/mol'
        478        PROPERTIES SR-POLAR FREE-WATER=STEAM-TA SOLU-WATER=3  &
        479            TRUE-COMPS=YES
        480        MOLE-FLOW GLYCEROL 1 /  METHY-01  1
        481        STATE PRES=1.
        482        VARY TEMP
        483        RANGE LIST=40.
        484        VARY MOLEFRAC COMP=GLYCEROL
        485        RANGE VARVALUE=RANGE LOWER=0.0 UPPER=1.0 NPOINT=50
        486        PARAM NPHASE=3
        487    ;
        488    ;
        489    ;
        490    ;
        491    ;
Added container block B2
 *** INPUT TRANSLATOR MESSAGES ***

  *** THIS RUN USES THE PROPERTIES ENTERPRISE DATABASE ***
      SQLLOCALDB.APESV100 : (DATAVERSION - 36.0.0.1)                          
      SQLLOCALDB.APV100 : (DATAVERSION - 36.0.0.21)                           
      SQLLOCALDB.FACTV100 : (DATAVERSION - 36.0.0.1)                          
      SQLLOCALDB.NISTV100 : (DATAVERSION - 36.0.0.15)                         

      INFORMATION IN PHYSICAL PROPERTY SYSTEM                  (PCERTE.10)      
      STRUCTURE FOR COMPONENT TRILI-01 HAS NOT BEEN DEFINED.                    
      PCES CANNOT USE GROUP-CONTRIBUTION METHODS TO ESTIMATE MISSING PROPERTIES.
      USE THE STRUCTURES PARAGRAPH TO DEFINE STRUCTURES OF THIS COMPONENT.      

      INFORMATION IN PHYSICAL PROPERTY SYSTEM                  (PCERTE.10)      
      STRUCTURE FOR COMPONENT UREA HAS NOT BEEN DEFINED.                        
      PCES CANNOT USE GROUP-CONTRIBUTION METHODS TO ESTIMATE MISSING PROPERTIES.
      USE THE STRUCTURES PARAGRAPH TO DEFINE STRUCTURES OF THIS COMPONENT.      

      INFORMATION IN PHYSICAL PROPERTY SYSTEM                  (PCERTE.10)      
      STRUCTURE FOR COMPONENT CALCI-01 HAS NOT BEEN DEFINED.                    
      PCES CANNOT USE GROUP-CONTRIBUTION METHODS TO ESTIMATE MISSING PROPERTIES.
      USE THE STRUCTURES PARAGRAPH TO DEFINE STRUCTURES OF THIS COMPONENT.      

      INFORMATION IN PHYSICAL PROPERTY SYSTEM                  (PCERTE.10)      
      STRUCTURE FOR COMPONENT LANTH-01 HAS NOT BEEN DEFINED.                    
      PCES CANNOT USE GROUP-CONTRIBUTION METHODS TO ESTIMATE MISSING PROPERTIES.
      USE THE STRUCTURES PARAGRAPH TO DEFINE STRUCTURES OF THIS COMPONENT.      

      INFORMATION IN PHYSICAL PROPERTY SYSTEM                  (PCERTE.10)      
      STRUCTURE FOR COMPONENT GLYCE-01 HAS NOT BEEN DEFINED.                    
      PCES CANNOT USE GROUP-CONTRIBUTION METHODS TO ESTIMATE MISSING PROPERTIES.
      USE THE STRUCTURES PARAGRAPH TO DEFINE STRUCTURES OF THIS COMPONENT.      

      INFORMATION IN PHYSICAL PROPERTY SYSTEM                  (LOADMW.5)       
      MW AVAILABLE FOR COMPONENT TRILI-01 IS DIFFERENT FROM MW                  
      CALCULATED FROM FORMULA (ATOMNO/NOATOM).  CALCULATED VALUE IS USED.       
      AVAILABLE MW =   879.3840     CALCULATED MW =   879.4015                  

  *   WARNING IN PHYSICAL PROPERTY SYSTEM                      (LCLIMS.4)       
      PARAMETER DHVLWT/ELEMENT  1 (DATA SET 1)                                  
      UPPER BOUND VIOLATED FOR COMPONENT CALCI-01                               
      VALUE =  0.22559E+10, UPPER BOUND =  0.60000E+09                          

  *   WARNING IN PHYSICAL PROPERTY SYSTEM                      (LCLIMS.4)       
      PARAMETER DHVLWT/ELEMENT  5 (DATA SET 1)                                  
      UPPER BOUND VIOLATED FOR COMPONENT CALCI-01                               
      VALUE =   3670.0    , UPPER BOUND =   1500.0                              

  *   WARNING WHILE CHECKING INPUT SPECIFICATIONS              (PRPCHK.1)       
      INCONSISTENT PROPERTIES DETECTED FOR 12 STREAMS                           
      (SEE CONTROL PANEL OR HISTORY FILE FOR FULL LIST)                         
      SOURCE BLOCK        PROPERTIES STREAM   DESTINATION BLOCK   PROPERTIES    
      =================== ========== ======== =================== ==========    
      B3                  NRTL       S105     B4                  SR-POLAR      
      B2.B1               SR-POLAR   S104     B3                  NRTL          
      HEATX1              NRTL       S107     B6                  IDEAL         
      B16                 STEAM-TA   W101     HEATX1              NRTL          
      B4                  SR-POLAR   S106     HEATX1              NRTL          
      B16                 NRTL       R106     B17                 IDEAL         
      B18                 SR-POLAR   R105     B16                 NRTL          
      B17                 IDEAL      S102     B10                 SR-POLAR      
      B6                  IDEAL      R104     B18                 SR-POLAR      
      HEATX1              NRTL       W102     B5                  SR-POLAR      
      B6                  IDEAL      P101     B23                 NRTL          
      B3                  NRTL       R101     B22                 SR-POLAR      
 
 

 PDF updated                                                                      TIME =      5.53


 THE FOLLOWING PURE COMPONENT PARAMETERS ARE ESTIMATED FOR MODEL ESRKU:


 COMPONENT GLYCEROL
      POLAR PARAMETER RKUPP0 =    -0.065662
                      RKUPP1 =     3.433459
                      RKUPP2 =    -6.929989

 COMPONENT TRIOL-01
      POLAR PARAMETER RKUPP0 =     4.099804
                      RKUPP1 =    -3.004889
                      RKUPP2 =     2.162829

 COMPONENT TRILI-01
      POLAR PARAMETER RKUPP0 =     4.075085
                      RKUPP1 =    -3.003402
                      RKUPP2 =     2.160700

 COMPONENT METHA-01
      POLAR PARAMETER RKUPP0 =     0.162227
                      RKUPP1 =    -1.430134
                      RKUPP2 =     0.008900

 COMPONENT METHY-01
      POLAR PARAMETER RKUPP0 =    -0.028342
                      RKUPP1 =   -11.709490
                      RKUPP2 =    14.975620

 COMPONENT METHY-02
      POLAR PARAMETER RKUPP0 =     0.959016
                      RKUPP1 =    -2.964248
                      RKUPP2 =     2.123185

 COMPONENT UREA    
      POLAR PARAMETER RKUPP0 =    -0.323045
                      RKUPP1 =    -2.966432
                      RKUPP2 =     2.198500

 COMPONENT CALCI-01
      POLAR PARAMETER RKUPP0 =     0.711866
                      RKUPP1 =    -4.328770
                      RKUPP2 =    -5.480186

 COMPONENT LANTH-01
      POLAR PARAMETER RKUPP0 =     0.000000
                      RKUPP1 =     0.000000
                      RKUPP2 =     0.000000

 COMPONENT AMMON-01
      POLAR PARAMETER RKUPP0 =     0.036832
                      RKUPP1 =    -0.837919
                      RKUPP2 =    -0.809507

 COMPONENT GLYCE-01
      POLAR PARAMETER RKUPP0 =     0.000000
                      RKUPP1 =     0.000000
                      RKUPP2 =     0.000000

 COMPONENT NITROGEN
      POLAR PARAMETER RKUPP0 =     0.000000
                      RKUPP1 =     0.000000
                      RKUPP2 =     0.000000

 COMPONENT WATER   
      POLAR PARAMETER RKUPP0 =     0.065549
                      RKUPP1 =    -0.560763
                      RKUPP2 =    -1.260662

 COMPONENT AIR     
      POLAR PARAMETER RKUPP0 =     0.000000
                      RKUPP1 =     0.000000
                      RKUPP2 =     0.000000

 THE FOLLOWING BINARY-INTERACTION PARAMETERS ARE ESTIMATED FOR MODEL ESRKU:


 BINARY GLYCEROL - TRIOL-01

      INTERACTION PARAMETERS NOT PREDICTED BECAUSE UNIFAC GENERATES VERY LOW OR HIGH PRESSURE DATA

 BINARY GLYCEROL - TRILI-01

      INTERACTION PARAMETERS NOT PREDICTED BECAUSE UNIFAC GROUP PARAMETERS ARE MISSING

 BINARY GLYCEROL - METHA-01
      RKUKA0 =   -0.121950    
      RKUKA2 =     23.8381    
      RKULA0 =    0.341113E-01
      RKULA2 =    -10.0315    

      FOR     298.15 (K) <= T <=    318.15 (K)


 BINARY GLYCEROL - METHY-01

      INTERACTION PARAMETERS NOT PREDICTED BECAUSE UNIFAC GENERATES VERY LOW OR HIGH PRESSURE DATA

 BINARY GLYCEROL - METHY-02

      INTERACTION PARAMETERS NOT PREDICTED BECAUSE UNIFAC GENERATES VERY LOW OR HIGH PRESSURE DATA

 BINARY GLYCEROL - UREA    

      INTERACTION PARAMETERS NOT PREDICTED BECAUSE UNIFAC GROUP PARAMETERS ARE MISSING

 BINARY GLYCEROL - CALCI-01

      INTERACTION PARAMETERS NOT PREDICTED BECAUSE UNIFAC GROUP PARAMETERS ARE MISSING

 BINARY GLYCEROL - LANTH-01

      INTERACTION PARAMETERS CANNOT BE PREDICTED USING UNIFAC

 BINARY GLYCEROL - GLYCE-01

      INTERACTION PARAMETERS NOT PREDICTED BECAUSE UNIFAC GROUP PARAMETERS ARE MISSING

 BINARY GLYCEROL - WATER   
      RKUKA0 =    0.437324E-02
      RKUKA2 =    -14.9176    
      RKULA0 =    0.787803E-02
      RKULA2 =    -2.78170    

      FOR     298.15 (K) <= T <=    318.15 (K)


 BINARY TRIOL-01 - TRILI-01

      INTERACTION PARAMETERS NOT PREDICTED BECAUSE UNIFAC GROUP PARAMETERS ARE MISSING

 BINARY TRIOL-01 - METHA-01

      INTERACTION PARAMETERS NOT PREDICTED BECAUSE UNIFAC GENERATES VERY LOW OR HIGH PRESSURE DATA

 BINARY TRIOL-01 - METHY-01

      INTERACTION PARAMETERS NOT PREDICTED BECAUSE UNIFAC GENERATES VERY LOW OR HIGH PRESSURE DATA

 BINARY TRIOL-01 - METHY-02

      INTERACTION PARAMETERS NOT PREDICTED BECAUSE UNIFAC GENERATES VERY LOW OR HIGH PRESSURE DATA

 BINARY TRIOL-01 - UREA    

      INTERACTION PARAMETERS NOT PREDICTED BECAUSE UNIFAC GROUP PARAMETERS ARE MISSING

 BINARY TRIOL-01 - CALCI-01

      INTERACTION PARAMETERS NOT PREDICTED BECAUSE UNIFAC GROUP PARAMETERS ARE MISSING

 BINARY TRIOL-01 - LANTH-01

      INTERACTION PARAMETERS NOT PREDICTED BECAUSE UNIFAC GROUP PARAMETERS ARE MISSING

 BINARY TRIOL-01 - GLYCE-01

      INTERACTION PARAMETERS NOT PREDICTED BECAUSE UNIFAC GROUP PARAMETERS ARE MISSING

 BINARY TRIOL-01 - WATER   

      INTERACTION PARAMETERS NOT PREDICTED BECAUSE UNIFAC GENERATES VERY LOW OR HIGH PRESSURE DATA

 BINARY TRILI-01 - METHA-01

      INTERACTION PARAMETERS NOT PREDICTED BECAUSE UNIFAC GROUP PARAMETERS ARE MISSING

 BINARY TRILI-01 - METHY-01

      INTERACTION PARAMETERS NOT PREDICTED BECAUSE UNIFAC GROUP PARAMETERS ARE MISSING

 BINARY TRILI-01 - METHY-02

      INTERACTION PARAMETERS NOT PREDICTED BECAUSE UNIFAC GROUP PARAMETERS ARE MISSING

 BINARY TRILI-01 - UREA    

      INTERACTION PARAMETERS NOT PREDICTED BECAUSE UNIFAC GROUP PARAMETERS ARE MISSING

 BINARY TRILI-01 - CALCI-01

      INTERACTION PARAMETERS NOT PREDICTED BECAUSE UNIFAC GROUP PARAMETERS ARE MISSING

 BINARY TRILI-01 - LANTH-01

      INTERACTION PARAMETERS NOT PREDICTED BECAUSE UNIFAC GROUP PARAMETERS ARE MISSING

 BINARY TRILI-01 - GLYCE-01

      INTERACTION PARAMETERS NOT PREDICTED BECAUSE UNIFAC GROUP PARAMETERS ARE MISSING

 BINARY TRILI-01 - WATER   

      INTERACTION PARAMETERS NOT PREDICTED BECAUSE UNIFAC GROUP PARAMETERS ARE MISSING

 BINARY METHA-01 - METHY-01
      RKUKA0 =   -0.597541E-01
      RKUKA2 =     2.71431    
      RKULA0 =   -0.139340E-01
      RKULA2 =    -11.3968    

      FOR     298.15 (K) <= T <=    318.15 (K)


 BINARY METHA-01 - METHY-02
      RKUKA0 =    0.153105E-01
      RKUKA2 =    -25.2241    
      RKULA0 =   -0.182201E-02
      RKULA2 =    -16.6520    

      FOR     298.15 (K) <= T <=    318.15 (K)


 BINARY METHA-01 - UREA    

      INTERACTION PARAMETERS NOT PREDICTED BECAUSE UNIFAC GROUP PARAMETERS ARE MISSING

 BINARY METHA-01 - CALCI-01

      INTERACTION PARAMETERS NOT PREDICTED BECAUSE UNIFAC GROUP PARAMETERS ARE MISSING

 BINARY METHA-01 - LANTH-01

      INTERACTION PARAMETERS CANNOT BE PREDICTED USING UNIFAC

 BINARY METHA-01 - GLYCE-01

      INTERACTION PARAMETERS NOT PREDICTED BECAUSE UNIFAC GROUP PARAMETERS ARE MISSING

 BINARY METHA-01 - WATER   
      RKUKA0 =   -0.499725E-01
      RKUKA2 =    -10.9873    
      RKULA0 =    0.214775E-01
      RKULA2 =    -4.94103    

      FOR     298.15 (K) <= T <=    318.15 (K)


 BINARY METHY-01 - METHY-02

      INTERACTION PARAMETERS NOT PREDICTED BECAUSE UNIFAC GENERATES VERY LOW OR HIGH PRESSURE DATA

 BINARY METHY-01 - UREA    

      INTERACTION PARAMETERS NOT PREDICTED BECAUSE UNIFAC GROUP PARAMETERS ARE MISSING

 BINARY METHY-01 - CALCI-01

      INTERACTION PARAMETERS NOT PREDICTED BECAUSE UNIFAC GROUP PARAMETERS ARE MISSING

 BINARY METHY-01 - LANTH-01

      INTERACTION PARAMETERS NOT PREDICTED BECAUSE UNIFAC GROUP PARAMETERS ARE MISSING

 BINARY METHY-01 - GLYCE-01

      INTERACTION PARAMETERS NOT PREDICTED BECAUSE UNIFAC GROUP PARAMETERS ARE MISSING

 BINARY METHY-01 - WATER   
      RKUKA0 =    0.102557    
      RKUKA2 =    -100.148    
      RKULA0 =    0.248487    
      RKULA2 =    -27.1897    

      FOR     298.15 (K) <= T <=    318.15 (K)


 BINARY METHY-02 - UREA    

      INTERACTION PARAMETERS NOT PREDICTED BECAUSE UNIFAC GROUP PARAMETERS ARE MISSING

 BINARY METHY-02 - CALCI-01

      INTERACTION PARAMETERS NOT PREDICTED BECAUSE UNIFAC GROUP PARAMETERS ARE MISSING

 BINARY METHY-02 - LANTH-01

      INTERACTION PARAMETERS NOT PREDICTED BECAUSE UNIFAC GROUP PARAMETERS ARE MISSING

 BINARY METHY-02 - GLYCE-01

      INTERACTION PARAMETERS NOT PREDICTED BECAUSE UNIFAC GROUP PARAMETERS ARE MISSING

 BINARY METHY-02 - WATER   
      RKUKA0 =   -0.301775    
      RKUKA2 =     15.4611    
      RKULA0 =    0.628789    
      RKULA2 =    -151.548    

      FOR     298.15 (K) <= T <=    318.15 (K)


 BINARY UREA     - CALCI-01

      INTERACTION PARAMETERS NOT PREDICTED BECAUSE UNIFAC GROUP PARAMETERS ARE MISSING

 BINARY UREA     - LANTH-01

      INTERACTION PARAMETERS CANNOT BE PREDICTED USING UNIFAC

 BINARY UREA     - GLYCE-01

      INTERACTION PARAMETERS NOT PREDICTED BECAUSE UNIFAC GROUP PARAMETERS ARE MISSING

 BINARY UREA     - WATER   

      INTERACTION PARAMETERS NOT PREDICTED BECAUSE UNIFAC GROUP PARAMETERS ARE MISSING

 BINARY CALCI-01 - LANTH-01

      INTERACTION PARAMETERS CANNOT BE PREDICTED USING UNIFAC

 BINARY CALCI-01 - GLYCE-01

      INTERACTION PARAMETERS NOT PREDICTED BECAUSE UNIFAC GROUP PARAMETERS ARE MISSING

 BINARY CALCI-01 - WATER   

      INTERACTION PARAMETERS NOT PREDICTED BECAUSE UNIFAC GROUP PARAMETERS ARE MISSING

 BINARY LANTH-01 - GLYCE-01

      INTERACTION PARAMETERS CANNOT BE PREDICTED USING UNIFAC

 BINARY LANTH-01 - WATER   

      INTERACTION PARAMETERS CANNOT BE PREDICTED USING UNIFAC

 BINARY GLYCE-01 - WATER   

      INTERACTION PARAMETERS NOT PREDICTED BECAUSE UNIFAC GROUP PARAMETERS ARE MISSING

 *** CALCULATION TRACE ***


 *** FLOWSHEET ANALYSIS MESSAGES ***

 FLOWSHEET CONNECTIVITY BY STREAMS       

 FLOWSHEET SECTION GLOBAL  
   STREAM     SOURCE     DEST           STREAM     SOURCE     DEST
   METHANOL   ----       B1             OILS       ----       B1      
   UREA       ----       B11            WATER      ----       B16     
   CAO        ----       B25            LAO        ----       B28     
   AIR        ----       COOLT          S104       $C-2       B3      
   S106       B4         HEATX1         S201       B4         B9      
   S105       B3         B4             R101       B3         B22     
   S101       B1         B17            R104       B6         B18     
   P101       B6         B23            R201       B9         B7      
   S202       B9         B11            S205       B8         B12     
   S206       B12        B13            R204       B12        B27     
   D203       B13        B20            S207       B13        B15     
   R207       B14        B5             P201       B14        HEATX2  
   S208       B15        B14            W102       HEATX1     B5      
   S107       HEATX1     B6             S203       B11        HEATX2  
   P202       HEATX2     B21            S204       HEATX2     B8      
   R202       B7         B19            D201       B7         ----    
   S102       B17        B10            R106       B16        B17     
   W101       B16        HEATX1         R203       B19        B18     
   S103       B10        $C-1           R105       B18        B16     
   R208       B5         B11            W103       B5         B20     
   D204       B20        ----           W104       B20        B21     
   P203       B21        ----           W105       B21        COOLT   
   P102       B23        B26            D102       B26        ----    
   P103       B26        ----           R102       B22        B25     
   D101       B22        ----           R103       B25        B29     
   R205       B27        B28            D202       B27        ----    
   R206       B28        B24            CA201      B24        B8      
   CA101      B29        $C-3           W107       COOLT      ----    
   W106       COOLT      ----                                         

 FLOWSHEET CONNECTIVITY BY BLOCKS        

 FLOWSHEET SECTION GLOBAL  
   BLOCK        INLETS                         OUTLETS
   $C-1         S103                           S4                          
   $C-3         CA101                          CATIN                       
   $C-2         S5                             S104                        
   B4           S105                           S106 S201                   
   B3           S104                           S105 R101                   
   B1           OILS METHANOL                  S101                        
   B6           S107                           R104 P101                   
   B9           S201                           R201 S202                   
   B8           S204 CA201                     S205                        
   B12          S205                           S206 R204                   
   B13          S206                           D203 S207                   
   B14          S208                           R207 P201                   
   B15          S207                           S208                        
   HEATX1       W101 S106                      W102 S107                   
   B11          UREA S202 R208                 S203                        
   HEATX2       P201 S203                      P202 S204                   
   B7           R201                           R202 D201                   
   B17          S101 R106                      S102                        
   B16          R105 WATER                     R106 W101                   
   B19          R202                           R203                        
   B10          S102                           S103                        
   B18          R203 R104                      R105                        
   B5           R207 W102                      R208 W103                   
   B20          D203 W103                      D204 W104                   
   B21          P202 W104                      P203 W105                   
   B23          P101                           P102                        
   B26          P102                           D102 P103                   
   B22          R101                           R102 D101                   
   B25          CAO R102                       R103                        
   B27          R204                           R205 D202                   
   B28          LAO R205                       R206                        
   B24          R206                           CA201                       
   B29          R103                           CA101                       
   COOLT        AIR W105                       W107 W106                   

      BATCH CONVERGENCE BLOCK $BASVR01 HAS BEEN DEFINED

      BLOCK $OLVER02 (METHOD: WEGSTEIN) HAS BEEN DEFINED TO CONVERGE
               STREAMS: B2.S5  W101

      BLOCK $OLVER03 (METHOD: WEGSTEIN) HAS BEEN DEFINED TO CONVERGE
               STREAMS: S205

      COMPUTATION ORDER FOR THE FLOWSHEET IS:
      B1 
      $OLVER02 $C-2 B3 B4 HEATX1 B6 B9 B7 B19 B18 B16 B17 B10 $C-1 B22 
      |  B25 B29 $C-3 
      |  B2.$BASVR01 B2.B2 B2.B1 
      |  (RETURN B2.$BASVR01) 
      (RETURN $OLVER02) 
      B23 B26 
      $OLVER03 B12 B13 B15 B14 B5 B11 HEATX2 B27 B28 B24 B8 
      (RETURN $OLVER03) 
      B20 B21 COOLT 

Calculations begin                                                              time      0.06


 SIMULATION CALCULATIONS BEGIN                                                    TIME =      0.06

      ENTHALPY CALCULATION FOR INLET STREAM OILS OF BLOCK B1                      TIME =      0.06
      KODE = 2  NTRIAL =   3  T = 298.1500  P =  100000.      V =  0.00000      Q =  0.00000    

      ENTHALPY CALCULATION FOR INLET STREAM METHANOL OF BLOCK B1                  TIME =      0.06
      KODE = 2  NTRIAL =   1  T = 298.1500  P =  100000.      V =  0.00000      Q =  0.00000    

      UOS BLOCK B1       MODEL: MIXER                                             TIME =      0.06
      KODE = 1   NO. TEMP ITER =    1     TEMP =  298.150    
      KPHASE =    2 KODE =    1 T =  298.150     P =  100000.     Q =  0.00000    

      CONVERGENCE BLOCK $OLVER02  METHOD: WEGSTEIN                                TIME =      0.06
      ITER   0 For Tear Streams: B2.S5  W101

      UOS BLOCK $C-2     MODEL: DUPL                                              TIME =      0.06

      UOS BLOCK B3       MODEL: CFUGE                                             TIME =      0.06

  **  ERROR WHILE EXECUTING UNIT OPERATIONS BLOCK: "B3" (MODEL: "CFUGE")        
                                                               (SSTATE.10)      
      UNABLE TO CALCULATE FLASH.                                                

  **  ERROR WHILE EXECUTING UNIT OPERATIONS BLOCK: "B3" (MODEL: "CFUGE")        
                                                               (SEPBASE.2)      
      FLASH CALCULATION OF OUTLETS FAILED.                                      
        
      ABORTING CALCULATION DUE TO ERRORS. OUTLET STREAMS SET TO FALLBACK MODE!  

      UOS BLOCK B4       MODEL: DECANTER                                          TIME =      0.06

  *   WARNING WHILE EXECUTING UNIT OPERATIONS BLOCK: "B4" (MODEL: "DECANTER")   
                                                               (UFL03I.1)       
      ZERO TOTAL FEED FLOW TO BLOCK.                                            

      UOS BLOCK HEATX1   MODEL: HEATX                                             TIME =      0.06

  *   WARNING WHILE EXECUTING UNIT OPERATIONS BLOCK: "HEATX1" (MODEL: "HEATX")  
                                                               (UHE02I.1)       
      AT LEAST ONE FEED HAS ZERO FLOW                                           
      BLOCK BYPASSED                                                            

      UOS BLOCK B6       MODEL: RADFRAC                                           TIME =      0.06

  *   WARNING WHILE EXECUTING UNIT OPERATIONS BLOCK: "B6" (MODEL: "RADFRAC")    
                                                               (UDL3II.7060)    
      ZERO FEED - BLOCK BYPASSED.                                               

      UOS BLOCK B9       MODEL: FLASH2                                            TIME =      0.06

  *   WARNING WHILE EXECUTING UNIT OPERATIONS BLOCK: "B9" (MODEL: "FLASH2")     
                                                               (UFL01I.1)       
      ZERO FEED TO THE BLOCK.  BLOCK BYPASSED                                   

      UOS BLOCK B7       MODEL: FSPLIT                                            TIME =      0.06

  *   WARNING WHILE EXECUTING UNIT OPERATIONS BLOCK: "B7" (MODEL: "FSPLIT")     
                                                               (USP01I.1)       
      ZERO FEED TO THE BLOCK. BLOCK BYPASSED                                    

      UOS BLOCK B19      MODEL: COMPR                                             TIME =      0.06

  *   WARNING WHILE EXECUTING UNIT OPERATIONS BLOCK: "B19" (MODEL: "COMPR")     
                                                               (CMSTIN.1)       
      TOTAL FLOW IS ZERO. BLOCK IS BYPASSED.                                    
 

      UOS BLOCK B18      MODEL: MIXER                                             TIME =      0.06

  *   WARNING WHILE EXECUTING UNIT OPERATIONS BLOCK: "B18" (MODEL: "MIXER")     
                                                               (UMX01I.1)       
      ZERO FEED TO BLOCK.                                                       

      ENTHALPY CALCULATION FOR INLET STREAM WATER OF BLOCK B16                    TIME =      0.06
      KODE = 2  NTRIAL =   1  T = 298.1500  P =  100000.      V =  0.00000      Q =  0.00000    

      UOS BLOCK B16      MODEL: HEATX                                             TIME =      0.06

  *   WARNING WHILE EXECUTING UNIT OPERATIONS BLOCK: "B16" (MODEL: "HEATX")     
                                                               (UHE02I.1)       
      AT LEAST ONE FEED HAS ZERO FLOW                                           
      BLOCK BYPASSED                                                            

      UOS BLOCK B17      MODEL: MIXER                                             TIME =      0.06
      KODE = 1   NO. TEMP ITER =    4     TEMP =  298.150    
      KPHASE =    2 KODE =    1 T =  298.150     P =  100000.     Q =  0.00000    

      UOS BLOCK B10      MODEL: HEATER                                            TIME =      0.06
      KODE = 2   NO. TEMP ITER =    1     TEMP =  338.150    
      KPHASE =    2 KODE =    2 T =  338.150     P =  100000.     Q =  270229.    

      UOS BLOCK $C-1     MODEL: DUPL                                              TIME =      0.06

      UOS BLOCK B22      MODEL: FSPLIT                                            TIME =      0.06

  *   WARNING WHILE EXECUTING UNIT OPERATIONS BLOCK: "B22" (MODEL: "FSPLIT")    
                                                               (USP01I.1)       
      ZERO FEED TO THE BLOCK. BLOCK BYPASSED                                    

      ENTHALPY CALCULATION FOR INLET STREAM CAO OF BLOCK B25                      TIME =      0.06
      KODE = 2   NO. TEMP ITER =    1     TEMP =  298.150    
      KPHASE =    3 KODE =    2 T =  298.150     P =  100000.     Q =  0.00000    

      UOS BLOCK B25      MODEL: MIXER                                             TIME =      0.06
      KODE = 1   NO. TEMP ITER =    4     TEMP =  298.150    
      KPHASE =    3 KODE =    1 T =  298.150     P =  100000.     Q =  0.00000    

      UOS BLOCK B29      MODEL: HEATER                                            TIME =      0.06
      KODE = 2   NO. TEMP ITER =    1     TEMP =  873.150    
      KPHASE =    3 KODE =    2 T =  873.150     P =  100000.     Q =  537.956    

      UOS BLOCK $C-3     MODEL: DUPL                                              TIME =      0.06

      Batch Convergence Block $BASVR01 Hierarchy: B2                              TIME =      0.06

  *   WARNING WHILE EXECUTING BATCH CONVERGENC BLOCK: "$BASVR01" IN "B2"        
                                                               (WRTVARIN.1)     
      No active unit procedure is detected. The simulation will run to          
      the maximum integration time of 6.000 HR                                  

      Start task machine for batch B2.$BASVR01
         # Tasks =    0 NVTEAR =    0 NVTASK =    0 NVVARG =    0

      UOS BLOCK B2       MODEL: MIXER        HIERARCHY: B2                        TIME =      0.06
      KODE = 1   NO. TEMP ITER =    5     TEMP =  338.951    
      KPHASE =    2 KODE =    1 T =  338.951     P =  100000.     Q =  0.00000    

      UOS BLOCK B1       MODEL: BATCHOP      HIERARCHY: B2                        TIME =      0.06

      UOS BLOCK B1       MODEL: BATCHOP      HIERARCHY: B2                        TIME =      0.07
      STREAM B2.S5 WILL BE FLASHED FOR PROPERTY CALCULATIONS.
      KODE = 2   NO. TEMP ITER =    1     TEMP =  338.951    
      KPHASE =    2 KODE =    2 T =  338.951     P =  100000.     Q =-1.884249E-08

      UOS BLOCK B1       MODEL: BATCHOP      HIERARCHY: B2                        TIME =      0.19

      Integrating from  0.0000     to 0.10000E-01 by 0.10000E-01 HR

      UOS BLOCK B2       MODEL: MIXER        HIERARCHY: B2                        TIME =      0.25
      KODE = 1   NO. TEMP ITER =    1     TEMP =  338.951    
      KPHASE =    2 KODE =    1 T =  338.951     P =  100000.     Q =  0.00000    

      UOS BLOCK B1       MODEL: BATCHOP      HIERARCHY: B2                        TIME =      0.25

      UOS BLOCK B1       MODEL: BATCHOP      HIERARCHY: B2                        TIME =      0.27

      Integrating from 0.10000E-01 to 0.20000E-01 by 0.10000E-01 HR

      UOS BLOCK B2       MODEL: MIXER        HIERARCHY: B2                        TIME =      0.27
      KODE = 1   NO. TEMP ITER =    1     TEMP =  338.951    
      KPHASE =    2 KODE =    1 T =  338.951     P =  100000.     Q =  0.00000    

      UOS BLOCK B1       MODEL: BATCHOP      HIERARCHY: B2                        TIME =      0.27

      UOS BLOCK B1       MODEL: BATCHOP      HIERARCHY: B2                        TIME =      0.27

      Integrating from 0.20000E-01 to 0.30000E-01 by 0.10000E-01 HR

      UOS BLOCK B2       MODEL: MIXER        HIERARCHY: B2                        TIME =      0.27
      KODE = 1   NO. TEMP ITER =    1     TEMP =  338.951    
      KPHASE =    2 KODE =    1 T =  338.951     P =  100000.     Q =  0.00000    

      UOS BLOCK B1       MODEL: BATCHOP      HIERARCHY: B2                        TIME =      0.27

      UOS BLOCK B1       MODEL: BATCHOP      HIERARCHY: B2                        TIME =      0.27

      Integrating from 0.30000E-01 to 0.40000E-01 by 0.10000E-01 HR

      UOS BLOCK B2       MODEL: MIXER        HIERARCHY: B2                        TIME =      0.27
      KODE = 1   NO. TEMP ITER =    1     TEMP =  338.951    
      KPHASE =    2 KODE =    1 T =  338.951     P =  100000.     Q =  0.00000    

      UOS BLOCK B1       MODEL: BATCHOP      HIERARCHY: B2                        TIME =      0.27

      UOS BLOCK B1       MODEL: BATCHOP      HIERARCHY: B2                        TIME =      0.27

      Integrating from 0.40000E-01 to 0.50000E-01 by 0.10000E-01 HR

      UOS BLOCK B2       MODEL: MIXER        HIERARCHY: B2                        TIME =      0.27
      KODE = 1   NO. TEMP ITER =    1     TEMP =  338.951    
      KPHASE =    2 KODE =    1 T =  338.951     P =  100000.     Q =  0.00000    

      UOS BLOCK B1       MODEL: BATCHOP      HIERARCHY: B2                        TIME =      0.27

      UOS BLOCK B1       MODEL: BATCHOP      HIERARCHY: B2                        TIME =      0.35

      Integrating from 0.50000E-01 to 0.60000E-01 by 0.10000E-01 HR

      UOS BLOCK B2       MODEL: MIXER        HIERARCHY: B2                        TIME =      0.39
      KODE = 1   NO. TEMP ITER =    1     TEMP =  338.951    
      KPHASE =    2 KODE =    1 T =  338.951     P =  100000.     Q =  0.00000    

      UOS BLOCK B1       MODEL: BATCHOP      HIERARCHY: B2                        TIME =      0.39

      UOS BLOCK B1       MODEL: BATCHOP      HIERARCHY: B2                        TIME =      0.40

      Integrating from 0.60000E-01 to 0.70000E-01 by 0.10000E-01 HR

      UOS BLOCK B2       MODEL: MIXER        HIERARCHY: B2                        TIME =      0.40
      KODE = 1   NO. TEMP ITER =    1     TEMP =  338.951    
      KPHASE =    2 KODE =    1 T =  338.951     P =  100000.     Q =  0.00000    

      UOS BLOCK B1       MODEL: BATCHOP      HIERARCHY: B2                        TIME =      0.40

      UOS BLOCK B1       MODEL: BATCHOP      HIERARCHY: B2                        TIME =      0.40

      Integrating from 0.70000E-01 to 0.80000E-01 by 0.10000E-01 HR

      UOS BLOCK B2       MODEL: MIXER        HIERARCHY: B2                        TIME =      0.40
      KODE = 1   NO. TEMP ITER =    1     TEMP =  338.951    
      KPHASE =    2 KODE =    1 T =  338.951     P =  100000.     Q =  0.00000    

      UOS BLOCK B1       MODEL: BATCHOP      HIERARCHY: B2                        TIME =      0.40

      UOS BLOCK B1       MODEL: BATCHOP      HIERARCHY: B2                        TIME =      0.40

      Integrating from 0.80000E-01 to 0.90000E-01 by 0.10000E-01 HR

      UOS BLOCK B2       MODEL: MIXER        HIERARCHY: B2                        TIME =      0.40
      KODE = 1   NO. TEMP ITER =    1     TEMP =  338.951    
      KPHASE =    2 KODE =    1 T =  338.951     P =  100000.     Q =  0.00000    

      UOS BLOCK B1       MODEL: BATCHOP      HIERARCHY: B2                        TIME =      0.40

      UOS BLOCK B1       MODEL: BATCHOP      HIERARCHY: B2                        TIME =      0.40

      Integrating from 0.90000E-01 to 0.10000     by 0.10000E-01 HR

      UOS BLOCK B2       MODEL: MIXER        HIERARCHY: B2                        TIME =      0.40
      KODE = 1   NO. TEMP ITER =    1     TEMP =  338.951    
      KPHASE =    2 KODE =    1 T =  338.951     P =  100000.     Q =  0.00000    

      UOS BLOCK B1       MODEL: BATCHOP      HIERARCHY: B2                        TIME =      0.40

      UOS BLOCK B1       MODEL: BATCHOP      HIERARCHY: B2                        TIME =      0.48

      Integrating from 0.10000     to 0.11000     by 0.10000E-01 HR

      UOS BLOCK B2       MODEL: MIXER        HIERARCHY: B2                        TIME =      0.54
      KODE = 1   NO. TEMP ITER =    1     TEMP =  338.951    
      KPHASE =    2 KODE =    1 T =  338.951     P =  100000.     Q =  0.00000    

      UOS BLOCK B1       MODEL: BATCHOP      HIERARCHY: B2                        TIME =      0.54

      UOS BLOCK B1       MODEL: BATCHOP      HIERARCHY: B2                        TIME =      0.54

      Integrating from 0.11000     to 0.12000     by 0.10000E-01 HR

      UOS BLOCK B2       MODEL: MIXER        HIERARCHY: B2                        TIME =      0.54
      KODE = 1   NO. TEMP ITER =    1     TEMP =  338.951    
      KPHASE =    2 KODE =    1 T =  338.951     P =  100000.     Q =  0.00000    

      UOS BLOCK B1       MODEL: BATCHOP      HIERARCHY: B2                        TIME =      0.54

      UOS BLOCK B1       MODEL: BATCHOP      HIERARCHY: B2                        TIME =      0.54

      Integrating from 0.12000     to 0.13000     by 0.10000E-01 HR

      UOS BLOCK B2       MODEL: MIXER        HIERARCHY: B2                        TIME =      0.54
      KODE = 1   NO. TEMP ITER =    1     TEMP =  338.951    
      KPHASE =    2 KODE =    1 T =  338.951     P =  100000.     Q =  0.00000    

      UOS BLOCK B1       MODEL: BATCHOP      HIERARCHY: B2                        TIME =      0.54

      UOS BLOCK B1       MODEL: BATCHOP      HIERARCHY: B2                        TIME =      0.54

      Integrating from 0.13000     to 0.14000     by 0.10000E-01 HR

      UOS BLOCK B2       MODEL: MIXER        HIERARCHY: B2                        TIME =      0.54
      KODE = 1   NO. TEMP ITER =    1     TEMP =  338.951    
      KPHASE =    2 KODE =    1 T =  338.951     P =  100000.     Q =  0.00000    

      UOS BLOCK B1       MODEL: BATCHOP      HIERARCHY: B2                        TIME =      0.54

      UOS BLOCK B1       MODEL: BATCHOP      HIERARCHY: B2                        TIME =      0.54

      Integrating from 0.14000     to 0.15000     by 0.10000E-01 HR

      UOS BLOCK B2       MODEL: MIXER        HIERARCHY: B2                        TIME =      0.55
      KODE = 1   NO. TEMP ITER =    1     TEMP =  338.951    
      KPHASE =    2 KODE =    1 T =  338.951     P =  100000.     Q =  0.00000    

      UOS BLOCK B1       MODEL: BATCHOP      HIERARCHY: B2                        TIME =      0.55

      UOS BLOCK B1       MODEL: BATCHOP      HIERARCHY: B2                        TIME =      0.63

      Integrating from 0.15000     to 0.16000     by 0.10000E-01 HR

      UOS BLOCK B2       MODEL: MIXER        HIERARCHY: B2                        TIME =      0.70
      KODE = 1   NO. TEMP ITER =    1     TEMP =  338.951    
      KPHASE =    2 KODE =    1 T =  338.951     P =  100000.     Q =  0.00000    

      UOS BLOCK B1       MODEL: BATCHOP      HIERARCHY: B2                        TIME =      0.70

      UOS BLOCK B1       MODEL: BATCHOP      HIERARCHY: B2                        TIME =      0.70

      Integrating from 0.16000     to 0.17000     by 0.10000E-01 HR

      UOS BLOCK B2       MODEL: MIXER        HIERARCHY: B2                        TIME =      0.70
      KODE = 1   NO. TEMP ITER =    1     TEMP =  338.951    
      KPHASE =    2 KODE =    1 T =  338.951     P =  100000.     Q =  0.00000    

      UOS BLOCK B1       MODEL: BATCHOP      HIERARCHY: B2                        TIME =      0.70

      UOS BLOCK B1       MODEL: BATCHOP      HIERARCHY: B2                        TIME =      0.70

      Integrating from 0.17000     to 0.18000     by 0.10000E-01 HR

      UOS BLOCK B2       MODEL: MIXER        HIERARCHY: B2                        TIME =      0.70
      KODE = 1   NO. TEMP ITER =    1     TEMP =  338.951    
      KPHASE =    2 KODE =    1 T =  338.951     P =  100000.     Q =  0.00000    

      UOS BLOCK B1       MODEL: BATCHOP      HIERARCHY: B2                        TIME =      0.70

      UOS BLOCK B1       MODEL: BATCHOP      HIERARCHY: B2                        TIME =      0.71

      Integrating from 0.18000     to 0.19000     by 0.10000E-01 HR

      UOS BLOCK B2       MODEL: MIXER        HIERARCHY: B2                        TIME =      0.71
      KODE = 1   NO. TEMP ITER =    1     TEMP =  338.951    
      KPHASE =    2 KODE =    1 T =  338.951     P =  100000.     Q =  0.00000    

      UOS BLOCK B1       MODEL: BATCHOP      HIERARCHY: B2                        TIME =      0.71

      UOS BLOCK B1       MODEL: BATCHOP      HIERARCHY: B2                        TIME =      0.71

      Integrating from 0.19000     to 0.20000     by 0.10000E-01 HR

      UOS BLOCK B2       MODEL: MIXER        HIERARCHY: B2                        TIME =      0.71
      KODE = 1   NO. TEMP ITER =    1     TEMP =  338.951    
      KPHASE =    2 KODE =    1 T =  338.951     P =  100000.     Q =  0.00000    

      UOS BLOCK B1       MODEL: BATCHOP      HIERARCHY: B2                        TIME =      0.71

      UOS BLOCK B1       MODEL: BATCHOP      HIERARCHY: B2                        TIME =      0.79

      Integrating from 0.20000     to 0.21000     by 0.10000E-01 HR

      UOS BLOCK B2       MODEL: MIXER        HIERARCHY: B2                        TIME =      0.85
      KODE = 1   NO. TEMP ITER =    1     TEMP =  338.951    
      KPHASE =    2 KODE =    1 T =  338.951     P =  100000.     Q =  0.00000    

      UOS BLOCK B1       MODEL: BATCHOP      HIERARCHY: B2                        TIME =      0.85

      UOS BLOCK B1       MODEL: BATCHOP      HIERARCHY: B2                        TIME =      0.85

      Integrating from 0.21000     to 0.22000     by 0.10000E-01 HR

      UOS BLOCK B2       MODEL: MIXER        HIERARCHY: B2                        TIME =      0.85
      KODE = 1   NO. TEMP ITER =    1     TEMP =  338.951    
      KPHASE =    2 KODE =    1 T =  338.951     P =  100000.     Q =  0.00000    

      UOS BLOCK B1       MODEL: BATCHOP      HIERARCHY: B2                        TIME =      0.85

      UOS BLOCK B1       MODEL: BATCHOP      HIERARCHY: B2                        TIME =      0.85

      Integrating from 0.22000     to 0.23000     by 0.10000E-01 HR

      UOS BLOCK B2       MODEL: MIXER        HIERARCHY: B2                        TIME =      0.85
      KODE = 1   NO. TEMP ITER =    1     TEMP =  338.951    
      KPHASE =    2 KODE =    1 T =  338.951     P =  100000.     Q =  0.00000    

      UOS BLOCK B1       MODEL: BATCHOP      HIERARCHY: B2                        TIME =      0.85

      UOS BLOCK B1       MODEL: BATCHOP      HIERARCHY: B2                        TIME =      0.85

      Integrating from 0.23000     to 0.24000     by 0.10000E-01 HR

      UOS BLOCK B2       MODEL: MIXER        HIERARCHY: B2                        TIME =      0.85
      KODE = 1   NO. TEMP ITER =    1     TEMP =  338.951    
      KPHASE =    2 KODE =    1 T =  338.951     P =  100000.     Q =  0.00000    

      UOS BLOCK B1       MODEL: BATCHOP      HIERARCHY: B2                        TIME =      0.86

      UOS BLOCK B1       MODEL: BATCHOP      HIERARCHY: B2                        TIME =      0.86

      Integrating from 0.24000     to 0.25000     by 0.10000E-01 HR

      UOS BLOCK B2       MODEL: MIXER        HIERARCHY: B2                        TIME =      0.86
      KODE = 1   NO. TEMP ITER =    1     TEMP =  338.951    
      KPHASE =    2 KODE =    1 T =  338.951     P =  100000.     Q =  0.00000    

      UOS BLOCK B1       MODEL: BATCHOP      HIERARCHY: B2                        TIME =      0.86

      UOS BLOCK B1       MODEL: BATCHOP      HIERARCHY: B2                        TIME =      0.93

      Integrating from 0.25000     to 0.26000     by 0.10000E-01 HR

      UOS BLOCK B2       MODEL: MIXER        HIERARCHY: B2                        TIME =      0.99
      KODE = 1   NO. TEMP ITER =    1     TEMP =  338.951    
      KPHASE =    2 KODE =    1 T =  338.951     P =  100000.     Q =  0.00000    

      UOS BLOCK B1       MODEL: BATCHOP      HIERARCHY: B2                        TIME =      1.00

      UOS BLOCK B1       MODEL: BATCHOP      HIERARCHY: B2                        TIME =      1.00

      Integrating from 0.26000     to 0.27000     by 0.10000E-01 HR

      UOS BLOCK B2       MODEL: MIXER        HIERARCHY: B2                        TIME =      1.00
      KODE = 1   NO. TEMP ITER =    1     TEMP =  338.951    
      KPHASE =    2 KODE =    1 T =  338.951     P =  100000.     Q =  0.00000    

      UOS BLOCK B1       MODEL: BATCHOP      HIERARCHY: B2                        TIME =      1.00

      UOS BLOCK B1       MODEL: BATCHOP      HIERARCHY: B2                        TIME =      1.00

      Integrating from 0.27000     to 0.28000     by 0.10000E-01 HR

      UOS BLOCK B2       MODEL: MIXER        HIERARCHY: B2                        TIME =      1.00
      KODE = 1   NO. TEMP ITER =    1     TEMP =  338.951    
      KPHASE =    2 KODE =    1 T =  338.951     P =  100000.     Q =  0.00000    

      UOS BLOCK B1       MODEL: BATCHOP      HIERARCHY: B2                        TIME =      1.00

      UOS BLOCK B1       MODEL: BATCHOP      HIERARCHY: B2                        TIME =      1.00

      Integrating from 0.28000     to 0.29000     by 0.10000E-01 HR

      UOS BLOCK B2       MODEL: MIXER        HIERARCHY: B2                        TIME =      1.00
      KODE = 1   NO. TEMP ITER =    1     TEMP =  338.951    
      KPHASE =    2 KODE =    1 T =  338.951     P =  100000.     Q =  0.00000    

      UOS BLOCK B1       MODEL: BATCHOP      HIERARCHY: B2                        TIME =      1.00

      UOS BLOCK B1       MODEL: BATCHOP      HIERARCHY: B2                        TIME =      1.00

      Integrating from 0.29000     to 0.30000     by 0.10000E-01 HR

      UOS BLOCK B2       MODEL: MIXER        HIERARCHY: B2                        TIME =      1.00
      KODE = 1   NO. TEMP ITER =    1     TEMP =  338.951    
      KPHASE =    2 KODE =    1 T =  338.951     P =  100000.     Q =  0.00000    

      UOS BLOCK B1       MODEL: BATCHOP      HIERARCHY: B2                        TIME =      1.00

      UOS BLOCK B1       MODEL: BATCHOP      HIERARCHY: B2                        TIME =      1.08

      Integrating from 0.30000     to 0.31000     by 0.10000E-01 HR

      UOS BLOCK B2       MODEL: MIXER        HIERARCHY: B2                        TIME =      1.15
      KODE = 1   NO. TEMP ITER =    1     TEMP =  338.951    
      KPHASE =    2 KODE =    1 T =  338.951     P =  100000.     Q =  0.00000    

      UOS BLOCK B1       MODEL: BATCHOP      HIERARCHY: B2                        TIME =      1.15

      UOS BLOCK B1       MODEL: BATCHOP      HIERARCHY: B2                        TIME =      1.15

      Integrating from 0.31000     to 0.32000     by 0.10000E-01 HR

      UOS BLOCK B2       MODEL: MIXER        HIERARCHY: B2                        TIME =      1.15
      KODE = 1   NO. TEMP ITER =    1     TEMP =  338.951    
      KPHASE =    2 KODE =    1 T =  338.951     P =  100000.     Q =  0.00000    

      UOS BLOCK B1       MODEL: BATCHOP      HIERARCHY: B2                        TIME =      1.15

      UOS BLOCK B1       MODEL: BATCHOP      HIERARCHY: B2                        TIME =      1.15

      Integrating from 0.32000     to 0.33000     by 0.10000E-01 HR

      UOS BLOCK B2       MODEL: MIXER        HIERARCHY: B2                        TIME =      1.15
      KODE = 1   NO. TEMP ITER =    1     TEMP =  338.951    
      KPHASE =    2 KODE =    1 T =  338.951     P =  100000.     Q =  0.00000    

      UOS BLOCK B1       MODEL: BATCHOP      HIERARCHY: B2                        TIME =      1.15

      UOS BLOCK B1       MODEL: BATCHOP      HIERARCHY: B2                        TIME =      1.15

      Integrating from 0.33000     to 0.34000     by 0.10000E-01 HR

      UOS BLOCK B2       MODEL: MIXER        HIERARCHY: B2                        TIME =      1.15
      KODE = 1   NO. TEMP ITER =    1     TEMP =  338.951    
      KPHASE =    2 KODE =    1 T =  338.951     P =  100000.     Q =  0.00000    

      UOS BLOCK B1       MODEL: BATCHOP      HIERARCHY: B2                        TIME =      1.15

      UOS BLOCK B1       MODEL: BATCHOP      HIERARCHY: B2                        TIME =      1.15

      Integrating from 0.34000     to 0.35000     by 0.10000E-01 HR

      UOS BLOCK B2       MODEL: MIXER        HIERARCHY: B2                        TIME =      1.15
      KODE = 1   NO. TEMP ITER =    1     TEMP =  338.951    
      KPHASE =    2 KODE =    1 T =  338.951     P =  100000.     Q =  0.00000    

      UOS BLOCK B1       MODEL: BATCHOP      HIERARCHY: B2                        TIME =      1.15

      UOS BLOCK B1       MODEL: BATCHOP      HIERARCHY: B2                        TIME =      1.24

      Integrating from 0.35000     to 0.36000     by 0.10000E-01 HR

      UOS BLOCK B2       MODEL: MIXER        HIERARCHY: B2                        TIME =      1.31
      KODE = 1   NO. TEMP ITER =    1     TEMP =  338.951    
      KPHASE =    2 KODE =    1 T =  338.951     P =  100000.     Q =  0.00000    

      UOS BLOCK B1       MODEL: BATCHOP      HIERARCHY: B2                        TIME =      1.31

      UOS BLOCK B1       MODEL: BATCHOP      HIERARCHY: B2                        TIME =      1.31

      Integrating from 0.36000     to 0.37000     by 0.10000E-01 HR

      UOS BLOCK B2       MODEL: MIXER        HIERARCHY: B2                        TIME =      1.31
      KODE = 1   NO. TEMP ITER =    1     TEMP =  338.951    
      KPHASE =    2 KODE =    1 T =  338.951     P =  100000.     Q =  0.00000    

      UOS BLOCK B1       MODEL: BATCHOP      HIERARCHY: B2                        TIME =      1.31

      UOS BLOCK B1       MODEL: BATCHOP      HIERARCHY: B2                        TIME =      1.31

      Integrating from 0.37000     to 0.38000     by 0.10000E-01 HR

      UOS BLOCK B2       MODEL: MIXER        HIERARCHY: B2                        TIME =      1.31
      KODE = 1   NO. TEMP ITER =    1     TEMP =  338.951    
      KPHASE =    2 KODE =    1 T =  338.951     P =  100000.     Q =  0.00000    

      UOS BLOCK B1       MODEL: BATCHOP      HIERARCHY: B2                        TIME =      1.31

      UOS BLOCK B1       MODEL: BATCHOP      HIERARCHY: B2                        TIME =      1.31

      Integrating from 0.38000     to 0.39000     by 0.10000E-01 HR

      UOS BLOCK B2       MODEL: MIXER        HIERARCHY: B2                        TIME =      1.31
      KODE = 1   NO. TEMP ITER =    1     TEMP =  338.951    
      KPHASE =    2 KODE =    1 T =  338.951     P =  100000.     Q =  0.00000    

      UOS BLOCK B1       MODEL: BATCHOP      HIERARCHY: B2                        TIME =      1.31

      UOS BLOCK B1       MODEL: BATCHOP      HIERARCHY: B2                        TIME =      1.31

      Integrating from 0.39000     to 0.40000     by 0.10000E-01 HR

      UOS BLOCK B2       MODEL: MIXER        HIERARCHY: B2                        TIME =      1.31
      KODE = 1   NO. TEMP ITER =    1     TEMP =  338.951    
      KPHASE =    2 KODE =    1 T =  338.951     P =  100000.     Q =  0.00000    

      UOS BLOCK B1       MODEL: BATCHOP      HIERARCHY: B2                        TIME =      1.31

      UOS BLOCK B1       MODEL: BATCHOP      HIERARCHY: B2                        TIME =      1.38

      Integrating from 0.40000     to 0.41000     by 0.10000E-01 HR

      UOS BLOCK B2       MODEL: MIXER        HIERARCHY: B2                        TIME =      1.45
      KODE = 1   NO. TEMP ITER =    1     TEMP =  338.951    
      KPHASE =    2 KODE =    1 T =  338.951     P =  100000.     Q =  0.00000    

      UOS BLOCK B1       MODEL: BATCHOP      HIERARCHY: B2                        TIME =      1.45

      UOS BLOCK B1       MODEL: BATCHOP      HIERARCHY: B2                        TIME =      1.45

      Integrating from 0.41000     to 0.42000     by 0.10000E-01 HR

      UOS BLOCK B2       MODEL: MIXER        HIERARCHY: B2                        TIME =      1.45
      KODE = 1   NO. TEMP ITER =    1     TEMP =  338.951    
      KPHASE =    2 KODE =    1 T =  338.951     P =  100000.     Q =  0.00000    

      UOS BLOCK B1       MODEL: BATCHOP      HIERARCHY: B2                        TIME =      1.45

      UOS BLOCK B1       MODEL: BATCHOP      HIERARCHY: B2                        TIME =      1.46

      Integrating from 0.42000     to 0.43000     by 0.10000E-01 HR

      UOS BLOCK B2       MODEL: MIXER        HIERARCHY: B2                        TIME =      1.46
      KODE = 1   NO. TEMP ITER =    1     TEMP =  338.951    
      KPHASE =    2 KODE =    1 T =  338.951     P =  100000.     Q =  0.00000    

      UOS BLOCK B1       MODEL: BATCHOP      HIERARCHY: B2                        TIME =      1.46

      UOS BLOCK B1       MODEL: BATCHOP      HIERARCHY: B2                        TIME =      1.46

      Integrating from 0.43000     to 0.44000     by 0.10000E-01 HR

      UOS BLOCK B2       MODEL: MIXER        HIERARCHY: B2                        TIME =      1.46
      KODE = 1   NO. TEMP ITER =    1     TEMP =  338.951    
      KPHASE =    2 KODE =    1 T =  338.951     P =  100000.     Q =  0.00000    

      UOS BLOCK B1       MODEL: BATCHOP      HIERARCHY: B2                        TIME =      1.46

      UOS BLOCK B1       MODEL: BATCHOP      HIERARCHY: B2                        TIME =      1.46

      Integrating from 0.44000     to 0.45000     by 0.10000E-01 HR

      UOS BLOCK B2       MODEL: MIXER        HIERARCHY: B2                        TIME =      1.46
      KODE = 1   NO. TEMP ITER =    1     TEMP =  338.951    
      KPHASE =    2 KODE =    1 T =  338.951     P =  100000.     Q =  0.00000    

      UOS BLOCK B1       MODEL: BATCHOP      HIERARCHY: B2                        TIME =      1.46

      UOS BLOCK B1       MODEL: BATCHOP      HIERARCHY: B2                        TIME =      1.54

      Integrating from 0.45000     to 0.46000     by 0.10000E-01 HR

      UOS BLOCK B2       MODEL: MIXER        HIERARCHY: B2                        TIME =      1.60
      KODE = 1   NO. TEMP ITER =    1     TEMP =  338.951    
      KPHASE =    2 KODE =    1 T =  338.951     P =  100000.     Q =  0.00000    

      UOS BLOCK B1       MODEL: BATCHOP      HIERARCHY: B2                        TIME =      1.60

      UOS BLOCK B1       MODEL: BATCHOP      HIERARCHY: B2                        TIME =      1.60

      Integrating from 0.46000     to 0.47000     by 0.10000E-01 HR

      UOS BLOCK B2       MODEL: MIXER        HIERARCHY: B2                        TIME =      1.60
      KODE = 1   NO. TEMP ITER =    1     TEMP =  338.951    
      KPHASE =    2 KODE =    1 T =  338.951     P =  100000.     Q =  0.00000    

      UOS BLOCK B1       MODEL: BATCHOP      HIERARCHY: B2                        TIME =      1.60

      UOS BLOCK B1       MODEL: BATCHOP      HIERARCHY: B2                        TIME =      1.60

      Integrating from 0.47000     to 0.48000     by 0.10000E-01 HR

      UOS BLOCK B2       MODEL: MIXER        HIERARCHY: B2                        TIME =      1.60
      KODE = 1   NO. TEMP ITER =    1     TEMP =  338.951    
      KPHASE =    2 KODE =    1 T =  338.951     P =  100000.     Q =  0.00000    

      UOS BLOCK B1       MODEL: BATCHOP      HIERARCHY: B2                        TIME =      1.60

      UOS BLOCK B1       MODEL: BATCHOP      HIERARCHY: B2                        TIME =      1.60

      Integrating from 0.48000     to 0.49000     by 0.10000E-01 HR

      UOS BLOCK B2       MODEL: MIXER        HIERARCHY: B2                        TIME =      1.60
      KODE = 1   NO. TEMP ITER =    1     TEMP =  338.951    
      KPHASE =    2 KODE =    1 T =  338.951     P =  100000.     Q =  0.00000    

      UOS BLOCK B1       MODEL: BATCHOP      HIERARCHY: B2                        TIME =      1.60

      UOS BLOCK B1       MODEL: BATCHOP      HIERARCHY: B2                        TIME =      1.60

      Integrating from 0.49000     to 0.50000     by 0.10000E-01 HR

      UOS BLOCK B2       MODEL: MIXER        HIERARCHY: B2                        TIME =      1.60
      KODE = 1   NO. TEMP ITER =    1     TEMP =  338.951    
      KPHASE =    2 KODE =    1 T =  338.951     P =  100000.     Q =  0.00000    

      UOS BLOCK B1       MODEL: BATCHOP      HIERARCHY: B2                        TIME =      1.61

      UOS BLOCK B1       MODEL: BATCHOP      HIERARCHY: B2                        TIME =      1.67

      Integrating from 0.50000     to 0.51000     by 0.10000E-01 HR

      UOS BLOCK B2       MODEL: MIXER        HIERARCHY: B2                        TIME =      1.73
      KODE = 1   NO. TEMP ITER =    1     TEMP =  338.951    
      KPHASE =    2 KODE =    1 T =  338.951     P =  100000.     Q =  0.00000    

      UOS BLOCK B1       MODEL: BATCHOP      HIERARCHY: B2                        TIME =      1.73

      UOS BLOCK B1       MODEL: BATCHOP      HIERARCHY: B2                        TIME =      1.73

      Integrating from 0.51000     to 0.52000     by 0.10000E-01 HR

      UOS BLOCK B2       MODEL: MIXER        HIERARCHY: B2                        TIME =      1.73
      KODE = 1   NO. TEMP ITER =    1     TEMP =  338.951    
      KPHASE =    2 KODE =    1 T =  338.951     P =  100000.     Q =  0.00000    

      UOS BLOCK B1       MODEL: BATCHOP      HIERARCHY: B2                        TIME =      1.73

      UOS BLOCK B1       MODEL: BATCHOP      HIERARCHY: B2                        TIME =      1.73

      Integrating from 0.52000     to 0.53000     by 0.10000E-01 HR

      UOS BLOCK B2       MODEL: MIXER        HIERARCHY: B2                        TIME =      1.73
      KODE = 1   NO. TEMP ITER =    1     TEMP =  338.951    
      KPHASE =    2 KODE =    1 T =  338.951     P =  100000.     Q =  0.00000    

      UOS BLOCK B1       MODEL: BATCHOP      HIERARCHY: B2                        TIME =      1.73

      UOS BLOCK B1       MODEL: BATCHOP      HIERARCHY: B2                        TIME =      1.73

      Integrating from 0.53000     to 0.54000     by 0.10000E-01 HR

      UOS BLOCK B2       MODEL: MIXER        HIERARCHY: B2                        TIME =      1.73
      KODE = 1   NO. TEMP ITER =    1     TEMP =  338.951    
      KPHASE =    2 KODE =    1 T =  338.951     P =  100000.     Q =  0.00000    

      UOS BLOCK B1       MODEL: BATCHOP      HIERARCHY: B2                        TIME =      1.73

      UOS BLOCK B1       MODEL: BATCHOP      HIERARCHY: B2                        TIME =      1.73

      Integrating from 0.54000     to 0.55000     by 0.10000E-01 HR

      UOS BLOCK B2       MODEL: MIXER        HIERARCHY: B2                        TIME =      1.73
      KODE = 1   NO. TEMP ITER =    1     TEMP =  338.951    
      KPHASE =    2 KODE =    1 T =  338.951     P =  100000.     Q =  0.00000    

      UOS BLOCK B1       MODEL: BATCHOP      HIERARCHY: B2                        TIME =      1.73

      UOS BLOCK B1       MODEL: BATCHOP      HIERARCHY: B2                        TIME =      1.81

      Integrating from 0.55000     to 0.56000     by 0.10000E-01 HR

      UOS BLOCK B2       MODEL: MIXER        HIERARCHY: B2                        TIME =      1.87
      KODE = 1   NO. TEMP ITER =    1     TEMP =  338.951    
      KPHASE =    2 KODE =    1 T =  338.951     P =  100000.     Q =  0.00000    

      UOS BLOCK B1       MODEL: BATCHOP      HIERARCHY: B2                        TIME =      1.87

      UOS BLOCK B1       MODEL: BATCHOP      HIERARCHY: B2                        TIME =      1.87

      Integrating from 0.56000     to 0.57000     by 0.10000E-01 HR

      UOS BLOCK B2       MODEL: MIXER        HIERARCHY: B2                        TIME =      1.87
      KODE = 1   NO. TEMP ITER =    1     TEMP =  338.951    
      KPHASE =    2 KODE =    1 T =  338.951     P =  100000.     Q =  0.00000    

      UOS BLOCK B1       MODEL: BATCHOP      HIERARCHY: B2                        TIME =      1.87

[...]
      KODE = 1  NTRIAL =   2  T = 354.3988  P =  100000.      V =  0.00000      Q =  0.00000    
      NO. TEMP ITER =    4     TEMP =  354.227    
      KODE = 1  NTRIAL =   2  T = 354.2274  P =  100000.      V =  0.00000      Q =  0.00000    
      NO. TEMP ITER =    4     TEMP =  354.056    
      KODE = 1  NTRIAL =   2  T = 354.0559  P =  100000.      V =  0.00000      Q =  0.00000    
      NO. TEMP ITER =    4     TEMP =  353.884    
      KODE = 1  NTRIAL =   2  T = 353.8844  P =  100000.      V =  0.00000      Q =  0.00000    
      NO. TEMP ITER =    4     TEMP =  353.713    
      KODE = 1  NTRIAL =   2  T = 353.7129  P =  100000.      V =  0.00000      Q =  0.00000    
      NO. TEMP ITER =    4     TEMP =  353.541    
      KODE = 1  NTRIAL =   2  T = 353.5415  P =  100000.      V =  0.00000      Q =  0.00000    
      NO. TEMP ITER =    4     TEMP =  353.370    
      KODE = 1  NTRIAL =   2  T = 353.3700  P =  100000.      V =  0.00000      Q =  0.00000    
      NO. TEMP ITER =    4     TEMP =  353.199    
      KODE = 1  NTRIAL =   2  T = 353.1986  P =  100000.      V =  0.00000      Q =  0.00000    
      NO. TEMP ITER =    4     TEMP =  353.027    
      KODE = 1  NTRIAL =   2  T = 353.0271  P =  100000.      V =  0.00000      Q =  0.00000    
      NO. TEMP ITER =    4     TEMP =  352.856    
      KODE = 1  NTRIAL =   2  T = 352.8557  P =  100000.      V =  0.00000      Q =  0.00000    
      NO. TEMP ITER =    4     TEMP =  352.684    
      KODE = 1  NTRIAL =   2  T = 352.6842  P =  100000.      V =  0.00000      Q =  0.00000    
      NO. TEMP ITER =    4     TEMP =  352.513    
      KODE = 1  NTRIAL =   2  T = 352.5128  P =  100000.      V =  0.00000      Q =  0.00000    
      NO. TEMP ITER =    4     TEMP =  352.341    
      KODE = 1  NTRIAL =   2  T = 352.3413  P =  100000.      V =  0.00000      Q =  0.00000    
      NO. TEMP ITER =    4     TEMP =  352.170    
      KODE = 1  NTRIAL =   2  T = 352.1699  P =  100000.      V =  0.00000      Q =  0.00000    
      NO. TEMP ITER =    4     TEMP =  351.998    
      KODE = 1  NTRIAL =   2  T = 351.9985  P =  100000.      V =  0.00000      Q =  0.00000    
      NO. TEMP ITER =    4     TEMP =  351.827    
      KODE = 1  NTRIAL =   2  T = 351.8270  P =  100000.      V =  0.00000      Q =  0.00000    

      BEGIN HOT-TQCURVE  INLET   
      KODE = 1  NTRIAL =   8  T = 547.7734  P =  100000.      V = 0.999992      Q =  0.00000    
      KODE = 1  NTRIAL =   4  T = 545.7384  P =  100000.      V = 0.943308      Q =  0.00000    
      KODE = 1  NTRIAL =   4  T = 543.6232  P =  100000.      V = 0.886397      Q =  0.00000    
      KODE = 1  NTRIAL =   4  T = 541.3880  P =  100000.      V = 0.829412      Q =  0.00000    
      KODE = 1  NTRIAL =   4  T = 538.9844  P =  100000.      V = 0.772513      Q =  0.00000    
      KODE = 1  NTRIAL =   4  T = 536.3577  P =  100000.      V = 0.715850      Q =  0.00000    
      KODE = 1  NTRIAL =   4  T = 533.4495  P =  100000.      V = 0.659548      Q =  0.00000    
      KODE = 1  NTRIAL =   4  T = 530.2027  P =  100000.      V = 0.603694      Q =  0.00000    
      KODE = 1  NTRIAL =   5  T = 526.5708  P =  100000.      V = 0.548297      Q =  0.00000    
      KODE = 1  NTRIAL =   5  T = 522.5340  P =  100000.      V = 0.493245      Q =  0.00000    
      KODE = 1  NTRIAL =   5  T = 518.1207  P =  100000.      V = 0.438254      Q =  0.00000    
      KODE = 1  NTRIAL =   5  T = 513.4268  P =  100000.      V = 0.382854      Q =  0.00000    
      KODE = 1  NTRIAL =   5  T = 508.6104  P =  100000.      V = 0.326472      Q =  0.00000    
      KODE = 1  NTRIAL =   5  T = 503.8450  P =  100000.      V = 0.268633      Q =  0.00000    
      KODE = 1  NTRIAL =   5  T = 499.2350  P =  100000.      V = 0.209253      Q =  0.00000    
      KODE = 1  NTRIAL =   5  T = 494.6928  P =  100000.      V = 0.149040      Q =  0.00000    
      KODE = 1  NTRIAL =   5  T = 489.6310  P =  100000.      V = 9.069353E-02  Q =  0.00000    
      KODE = 1  NTRIAL =   5  T = 481.8902  P =  100000.      V = 4.328001E-02  Q =  0.00000    
      KODE = 1  NTRIAL =   5  T = 468.3781  P =  100000.      V = 1.944329E-02  Q =  0.00000    
      KODE = 1  NTRIAL =   6  T = 451.0536  P =  100000.      V = 1.071660E-02  Q =  0.00000    
      KODE = 1  NTRIAL =   6  T = 432.3881  P =  100000.      V = 6.611594E-03  Q =  0.00000    
      KODE = 1  NTRIAL =   6  T = 413.1500  P =  100000.      V = 3.747849E-03  Q =  0.00000    

      BEGIN COLD-TQCURVE INLET   

      BEGIN HOT-TQCURVE  INLET   
      END HEATX TQ-CURVE CALCULATIONS FOR BLOCK B5      

      GENERATING RESULTS FOR UOS BLOCK B20      MODEL: HEATX                      TIME =    554.09
      SPECIFICATION: HOT OUTLET TEMP       363.15    
      FLOW TYPE:     COUNTERCURRENT  
      HOT:  TIN=  437.20  PIN= 50000.       TOUT=  363.15  POUT= 50000.    
      COLD: TIN=  355.43  PIN=0.10000E+06   TOUT=  357.69  POUT=0.10000E+06
      AREA=0.41080           DUTY= 10750.           FT=1.00000

      BEGIN HEATX TQ-CURVE CALCULATIONS FOR BLOCK B20     

      BEGIN COLD-TQCURVE INLET   
      NO. TEMP ITER =    4     TEMP =  357.695    
      KODE = 1  NTRIAL =   2  T = 357.6947  P =  100000.      V =  0.00000      Q =  0.00000    
      NO. TEMP ITER =    4     TEMP =  357.587    
      KODE = 1  NTRIAL =   2  T = 357.5867  P =  100000.      V =  0.00000      Q =  0.00000    
      NO. TEMP ITER =    4     TEMP =  357.479    
      KODE = 1  NTRIAL =   2  T = 357.4787  P =  100000.      V =  0.00000      Q =  0.00000    
      NO. TEMP ITER =    4     TEMP =  357.371    
      KODE = 1  NTRIAL =   2  T = 357.3708  P =  100000.      V =  0.00000      Q =  0.00000    
      NO. TEMP ITER =    4     TEMP =  357.263    
      KODE = 1  NTRIAL =   2  T = 357.2628  P =  100000.      V =  0.00000      Q =  0.00000    
      NO. TEMP ITER =    4     TEMP =  357.155    
      KODE = 1  NTRIAL =   2  T = 357.1549  P =  100000.      V =  0.00000      Q =  0.00000    
      NO. TEMP ITER =    4     TEMP =  357.047    
      KODE = 1  NTRIAL =   2  T = 357.0469  P =  100000.      V =  0.00000      Q =  0.00000    
      NO. TEMP ITER =    4     TEMP =  356.939    
      KODE = 1  NTRIAL =   2  T = 356.9390  P =  100000.      V =  0.00000      Q =  0.00000    
      NO. TEMP ITER =    4     TEMP =  356.831    
      KODE = 1  NTRIAL =   2  T = 356.8310  P =  100000.      V =  0.00000      Q =  0.00000    
      NO. TEMP ITER =    4     TEMP =  356.723    
      KODE = 1  NTRIAL =   2  T = 356.7231  P =  100000.      V =  0.00000      Q =  0.00000    
      NO. TEMP ITER =    4     TEMP =  356.615    
      KODE = 1  NTRIAL =   2  T = 356.6151  P =  100000.      V =  0.00000      Q =  0.00000    
      NO. TEMP ITER =    4     TEMP =  356.507    
      KODE = 1  NTRIAL =   2  T = 356.5072  P =  100000.      V =  0.00000      Q =  0.00000    
      NO. TEMP ITER =    4     TEMP =  356.399    
      KODE = 1  NTRIAL =   2  T = 356.3992  P =  100000.      V =  0.00000      Q =  0.00000    
      NO. TEMP ITER =    4     TEMP =  356.291    
      KODE = 1  NTRIAL =   2  T = 356.2913  P =  100000.      V =  0.00000      Q =  0.00000    
      NO. TEMP ITER =    4     TEMP =  356.183    
      KODE = 1  NTRIAL =   2  T = 356.1833  P =  100000.      V =  0.00000      Q =  0.00000    
      NO. TEMP ITER =    4     TEMP =  356.075    
      KODE = 1  NTRIAL =   2  T = 356.0754  P =  100000.      V =  0.00000      Q =  0.00000    
      NO. TEMP ITER =    4     TEMP =  355.967    
      KODE = 1  NTRIAL =   2  T = 355.9674  P =  100000.      V =  0.00000      Q =  0.00000    
      NO. TEMP ITER =    4     TEMP =  355.859    
      KODE = 1  NTRIAL =   2  T = 355.8595  P =  100000.      V =  0.00000      Q =  0.00000    
      NO. TEMP ITER =    4     TEMP =  355.752    
      KODE = 1  NTRIAL =   2  T = 355.7516  P =  100000.      V =  0.00000      Q =  0.00000    
      NO. TEMP ITER =    4     TEMP =  355.644    
      KODE = 1  NTRIAL =   2  T = 355.6436  P =  100000.      V =  0.00000      Q =  0.00000    
      NO. TEMP ITER =    4     TEMP =  355.536    
      KODE = 1  NTRIAL =   2  T = 355.5357  P =  100000.      V =  0.00000      Q =  0.00000    
      NO. TEMP ITER =    4     TEMP =  355.428    
      KODE = 1  NTRIAL =   2  T = 355.4277  P =  100000.      V =  0.00000      Q =  0.00000    

      BEGIN HOT-TQCURVE  INLET   
      NO. TEMP ITER =    3     TEMP =  437.203    
      KODE = 1  NTRIAL =   1  T = 437.2030  P =  50000.0      V =  1.00000      Q =  0.00000    
      KODE = 1  NTRIAL =  11  T = 431.3014  P =  50000.0      V = 0.998679      Q =  0.00000    
      KODE = 3  NTRIAL =   9  T = 437.2030  P =  50000.0      V =  1.00000      Q =-3.104644E-03
      KODE = 1  NTRIAL =  11  T = 431.3014  P =  50000.0      V = 0.998679      Q =  0.00000    
      KODE = 1  NTRIAL =   5  T = 425.0788  P =  50000.0      V = 0.997466      Q =  0.00000    
      KODE = 1  NTRIAL =   5  T = 418.7079  P =  50000.0      V = 0.996250      Q =  0.00000    
      KODE = 1  NTRIAL =   5  T = 412.3987  P =  50000.0      V = 0.994899      Q =  0.00000    
      KODE = 1  NTRIAL =   6  T = 406.3684  P =  50000.0      V = 0.993274      Q =  0.00000    
      KODE = 1  NTRIAL =   6  T = 400.8714  P =  50000.0      V = 0.991204      Q =  0.00000    
      KODE = 1  NTRIAL =   6  T = 396.1853  P =  50000.0      V = 0.988511      Q =  0.00000    
      KODE = 1  NTRIAL =   6  T = 392.4278  P =  50000.0      V = 0.985139      Q =  0.00000    
      KODE = 1  NTRIAL =   6  T = 389.4528  P =  50000.0      V = 0.981214      Q =  0.00000    
      KODE = 1  NTRIAL =   5  T = 387.0015  P =  50000.0      V = 0.976934      Q =  0.00000    
      KODE = 1  NTRIAL =   5  T = 384.8565  P =  50000.0      V = 0.972457      Q =  0.00000    
      KODE = 1  NTRIAL =   5  T = 382.8729  P =  50000.0      V = 0.967890      Q =  0.00000    
      KODE = 1  NTRIAL =   5  T = 380.9592  P =  50000.0      V = 0.963299      Q =  0.00000    
      KODE = 1  NTRIAL =   5  T = 379.0554  P =  50000.0      V = 0.958729      Q =  0.00000    
      KODE = 1  NTRIAL =   5  T = 377.1190  P =  50000.0      V = 0.954211      Q =  0.00000    
      KODE = 1  NTRIAL =   5  T = 375.1170  P =  50000.0      V = 0.949770      Q =  0.00000    
      KODE = 1  NTRIAL =   5  T = 373.0210  P =  50000.0      V = 0.945429      Q =  0.00000    
      KODE = 1  NTRIAL =   5  T = 370.8044  P =  50000.0      V = 0.941208      Q =  0.00000    
      KODE = 1  NTRIAL =   5  T = 368.4401  P =  50000.0      V = 0.937129      Q =  0.00000    
      KODE = 1  NTRIAL =   4  T = 365.8992  P =  50000.0      V = 0.933213      Q =  0.00000    
      KODE = 1  NTRIAL =   5  T = 363.1500  P =  50000.0      V = 0.929486      Q =  0.00000    

      BEGIN COLD-TQCURVE INLET   
      NO. TEMP ITER =    4     TEMP =  357.587    
      KODE = 1  NTRIAL =   2  T = 357.5867  P =  100000.      V =  0.00000      Q =  0.00000    

      BEGIN HOT-TQCURVE  INLET   
      END HEATX TQ-CURVE CALCULATIONS FOR BLOCK B20     

      GENERATING RESULTS FOR UOS BLOCK B21      MODEL: HEATX                      TIME =    554.10

      BEGIN HEATX TQ-CURVE CALCULATIONS FOR BLOCK B21     

      BEGIN COLD-TQCURVE INLET   
      NO. TEMP ITER =    4     TEMP =  361.298    
      KODE = 1  NTRIAL =   2  T = 361.2984  P =  100000.      V =  0.00000      Q =  0.00000    
      NO. TEMP ITER =    4     TEMP =  361.127    
      KODE = 1  NTRIAL =   2  T = 361.1267  P =  100000.      V =  0.00000      Q =  0.00000    
      NO. TEMP ITER =    4     TEMP =  360.955    
      KODE = 1  NTRIAL =   2  T = 360.9551  P =  100000.      V =  0.00000      Q =  0.00000    
      NO. TEMP ITER =    4     TEMP =  360.784    
      KODE = 1  NTRIAL =   2  T = 360.7835  P =  100000.      V =  0.00000      Q =  0.00000    
      NO. TEMP ITER =    4     TEMP =  360.612    
      KODE = 1  NTRIAL =   2  T = 360.6119  P =  100000.      V =  0.00000      Q =  0.00000    
      NO. TEMP ITER =    4     TEMP =  360.440    
      KODE = 1  NTRIAL =   2  T = 360.4403  P =  100000.      V =  0.00000      Q =  0.00000    
      NO. TEMP ITER =    4     TEMP =  360.269    
      KODE = 1  NTRIAL =   2  T = 360.2687  P =  100000.      V =  0.00000      Q =  0.00000    
      NO. TEMP ITER =    4     TEMP =  360.097    
      KODE = 1  NTRIAL =   2  T = 360.0971  P =  100000.      V =  0.00000      Q =  0.00000    
      NO. TEMP ITER =    4     TEMP =  359.925    
      KODE = 1  NTRIAL =   2  T = 359.9254  P =  100000.      V =  0.00000      Q =  0.00000    
      NO. TEMP ITER =    4     TEMP =  359.754    
      KODE = 1  NTRIAL =   2  T = 359.7538  P =  100000.      V =  0.00000      Q =  0.00000    
      NO. TEMP ITER =    4     TEMP =  359.582    
      KODE = 1  NTRIAL =   2  T = 359.5822  P =  100000.      V =  0.00000      Q =  0.00000    
      NO. TEMP ITER =    4     TEMP =  359.411    
      KODE = 1  NTRIAL =   2  T = 359.4106  P =  100000.      V =  0.00000      Q =  0.00000    
      NO. TEMP ITER =    4     TEMP =  359.239    
      KODE = 1  NTRIAL =   2  T = 359.2390  P =  100000.      V =  0.00000      Q =  0.00000    
      NO. TEMP ITER =    4     TEMP =  359.067    
      KODE = 1  NTRIAL =   2  T = 359.0674  P =  100000.      V =  0.00000      Q =  0.00000    
      NO. TEMP ITER =    4     TEMP =  358.896    
      KODE = 1  NTRIAL =   2  T = 358.8958  P =  100000.      V =  0.00000      Q =  0.00000    
      NO. TEMP ITER =    4     TEMP =  358.724    
      KODE = 1  NTRIAL =   2  T = 358.7242  P =  100000.      V =  0.00000      Q =  0.00000    
      NO. TEMP ITER =    4     TEMP =  358.553    
      KODE = 1  NTRIAL =   2  T = 358.5526  P =  100000.      V =  0.00000      Q =  0.00000    
      NO. TEMP ITER =    4     TEMP =  358.381    
      KODE = 1  NTRIAL =   2  T = 358.3810  P =  100000.      V =  0.00000      Q =  0.00000    
      NO. TEMP ITER =    4     TEMP =  358.209    
      KODE = 1  NTRIAL =   2  T = 358.2094  P =  100000.      V =  0.00000      Q =  0.00000    
      NO. TEMP ITER =    4     TEMP =  358.038    
      KODE = 1  NTRIAL =   2  T = 358.0378  P =  100000.      V =  0.00000      Q =  0.00000    
      NO. TEMP ITER =    4     TEMP =  357.866    
      KODE = 1  NTRIAL =   2  T = 357.8662  P =  100000.      V =  0.00000      Q =  0.00000    
      NO. TEMP ITER =    4     TEMP =  357.695    
      KODE = 1  NTRIAL =   2  T = 357.6947  P =  100000.      V =  0.00000      Q =  0.00000    

      BEGIN HOT-TQCURVE  INLET   
      NO. TEMP ITER =    5     TEMP =  467.987    
      KODE = 1  NTRIAL =   3  T = 467.9870  P =  100000.      V =  0.00000      Q =  0.00000    
      NO. TEMP ITER =    5     TEMP =  463.072    
      KODE = 1  NTRIAL =   3  T = 463.0723  P =  100000.      V =  0.00000      Q =  0.00000    
      NO. TEMP ITER =    5     TEMP =  458.138    
      KODE = 1  NTRIAL =   3  T = 458.1384  P =  100000.      V =  0.00000      Q =  0.00000    
      NO. TEMP ITER =    5     TEMP =  453.185    
      KODE = 1  NTRIAL =   3  T = 453.1853  P =  100000.      V =  0.00000      Q =  0.00000    
      NO. TEMP ITER =    6     TEMP =  448.213    
      KODE = 1  NTRIAL =   3  T = 448.2128  P =  100000.      V =  0.00000      Q =  0.00000    
      NO. TEMP ITER =    6     TEMP =  443.221    
      KODE = 1  NTRIAL =   3  T = 443.2209  P =  100000.      V =  0.00000      Q =  0.00000    
      NO. TEMP ITER =    6     TEMP =  438.209    
      KODE = 1  NTRIAL =   3  T = 438.2095  P =  100000.      V =  0.00000      Q =  0.00000    
      NO. TEMP ITER =    6     TEMP =  433.178    
      KODE = 1  NTRIAL =   3  T = 433.1785  P =  100000.      V =  0.00000      Q =  0.00000    
      NO. TEMP ITER =    6     TEMP =  428.128    
      KODE = 1  NTRIAL =   3  T = 428.1278  P =  100000.      V =  0.00000      Q =  0.00000    
      NO. TEMP ITER =    6     TEMP =  423.057    
      KODE = 1  NTRIAL =   3  T = 423.0572  P =  100000.      V =  0.00000      Q =  0.00000    
      NO. TEMP ITER =    6     TEMP =  417.967    
      KODE = 1  NTRIAL =   3  T = 417.9668  P =  100000.      V =  0.00000      Q =  0.00000    
      NO. TEMP ITER =    6     TEMP =  412.856    
      KODE = 1  NTRIAL =   3  T = 412.8564  P =  100000.      V =  0.00000      Q =  0.00000    
      NO. TEMP ITER =    6     TEMP =  407.726    
      KODE = 1  NTRIAL =   3  T = 407.7258  P =  100000.      V =  0.00000      Q =  0.00000    
      NO. TEMP ITER =    6     TEMP =  402.575    
      KODE = 1  NTRIAL =   3  T = 402.5751  P =  100000.      V =  0.00000      Q =  0.00000    
      NO. TEMP ITER =    6     TEMP =  397.404    
      KODE = 1  NTRIAL =   3  T = 397.4040  P =  100000.      V =  0.00000      Q =  0.00000    
      NO. TEMP ITER =    6     TEMP =  392.212    
      KODE = 1  NTRIAL =   3  T = 392.2124  P =  100000.      V =  0.00000      Q =  0.00000    
      NO. TEMP ITER =    6     TEMP =  387.000    
      KODE = 1  NTRIAL =   3  T = 387.0002  P =  100000.      V =  0.00000      Q =  0.00000    
      NO. TEMP ITER =    6     TEMP =  381.767    
      KODE = 1  NTRIAL =   3  T = 381.7674  P =  100000.      V =  0.00000      Q =  0.00000    
      NO. TEMP ITER =    6     TEMP =  376.514    
      KODE = 1  NTRIAL =   3  T = 376.5137  P =  100000.      V =  0.00000      Q =  0.00000    
      NO. TEMP ITER =    6     TEMP =  371.239    
      KODE = 1  NTRIAL =   3  T = 371.2390  P =  100000.      V =  0.00000      Q =  0.00000    
      NO. TEMP ITER =    6     TEMP =  365.943    
      KODE = 1  NTRIAL =   3  T = 365.9433  P =  100000.      V =  0.00000      Q =  0.00000    
      NO. TEMP ITER =    6     TEMP =  360.626    
      KODE = 1  NTRIAL =   3  T = 360.6264  P =  100000.      V =  0.00000      Q =  0.00000    

      BEGIN COLD-TQCURVE INLET   

      BEGIN HOT-TQCURVE  INLET   
      END HEATX TQ-CURVE CALCULATIONS FOR BLOCK B21     

      GENERATING RESULTS FOR UOS BLOCK B23      MODEL: HEATER                     TIME =    554.58

      GENERATING RESULTS FOR UOS BLOCK B24      MODEL: HEATER                     TIME =    554.58

      GENERATING RESULTS FOR UOS BLOCK B29      MODEL: HEATER                     TIME =    554.58
      STREAM D101 WILL BE FLASHED FOR PROPERTY CALCULATIONS.
      KODE = 1   NO. TEMP ITER =    1     TEMP =  337.391    
      KPHASE =    3 KODE =    1 T =  337.391     P =  100000.     Q =  0.00000    
      STREAM D202 WILL BE FLASHED FOR PROPERTY CALCULATIONS.
      KODE = 1   NO. TEMP ITER =    3     TEMP =  443.641    
      KPHASE =    3 KODE =    1 T =  443.641     P =  100000.     Q =  0.00000    
      STREAM R101 WILL BE FLASHED FOR PROPERTY CALCULATIONS.
      KODE = 1   NO. TEMP ITER =    4     TEMP =  337.391    
      KPHASE =    3 KODE =    1 T =  337.391     P =  100000.     Q =  0.00000    
      STREAM R102 WILL BE FLASHED FOR PROPERTY CALCULATIONS.
      KODE = 1   NO. TEMP ITER =    1     TEMP =  337.391    
      KPHASE =    3 KODE =    1 T =  337.391     P =  100000.     Q =  0.00000    
      STREAM R204 WILL BE FLASHED FOR PROPERTY CALCULATIONS.
      KODE = 1   NO. TEMP ITER =    3     TEMP =  443.641    
      KPHASE =    3 KODE =    1 T =  443.641     P =  100000.     Q =  0.00000    
      STREAM R205 WILL BE FLASHED FOR PROPERTY CALCULATIONS.
      KODE = 1   NO. TEMP ITER =    3     TEMP =  443.641    
      KPHASE =    3 KODE =    1 T =  443.641     P =  100000.     Q =  0.00000    
      STREAM S205 WILL BE FLASHED FOR PROPERTY CALCULATIONS.
      KODE = 2  NTRIAL =   3  T = 413.1500  P =  3000.00      V = 0.677532      Q = 2.726220E-05

      BEGIN HEATX TQ-CURVE REPORT FOR BLOCK B21     

      BEGIN COLD-TQCURVE INLET   

      BEGIN HOT-TQCURVE  INLET   
      END HEATX TQ-CURVE REPORT FOR BLOCK B21     

      BEGIN HEATX TQ-CURVE REPORT FOR BLOCK B16     

      BEGIN COLD-TQCURVE INLET   

      BEGIN HOT-TQCURVE  INLET   
      END HEATX TQ-CURVE REPORT FOR BLOCK B16     
