
 + + + + + + + + + + + + + + + + + + + + + + + + + + + + + + + + + + + + + + + +
 + + + + + + + + + + + + + + + + + + + + + + + + + + + + + + + + + + + + + + + +
 + +                                                                         + +
 + +                      ASPEN PLUS CALCULATION HISTORY                     + +
 + +                                                                         + +
 + + + + + + + + + + + + + + + + + + + + + + + + + + + + + + + + + + + + + + + +
 + + + + + + + + + + + + + + + + + + + + + + + + + + + + + + + + + + + + + + + +

 ASPEN PLUS IS A TRADEMARK OF           HOTLINE:
 ASPEN TECHNOLOGY, INC.                 U.S.A. 888/996-7100
 781/221-6400                           EUROPE (44) 1189-226555

 PLATFORM: WINDOWS                                       MARCH 12, 2020      
 VERSION: 36.0   Build 249                               THURSDAY    
 INSTALLATION:                                           3:59:30 P.M.        

 THIS COPY OF ASPEN PLUS LICENSED TO RENSSELAER POLYTECHNIC I        


      ASPEN PLUS (R) IS A PROPRIETARY PRODUCT OF ASPEN TECHNOLOGY, INC.
      (ASPENTECH), AND MAY BE USED ONLY UNDER AGREEMENT WITH ASPENTECH.
      RESTRICTED RIGHTS LEGEND:  USE, REPRODUCTION, OR DISCLOSURE BY THE
      U.S. GOVERNMENT IS SUBJECT TO RESTRICTIONS SET FORTH IN 
      (i) FAR 52.227-14, Alt. III, (ii) FAR 52.227-19, (iii) DFARS 
      252.227-7013(c)(1)(ii), or (iv) THE ACCOMPANYING LICENSE AGREEMENT,
      AS APPLICABLE. FOR PURPOSES OF THE FAR, THIS SOFTWARE SHALL BE DEEMED
      TO BE "UNPUBLISHED" AND LICENSED WITH DISCLOSURE PROHIBITIONS.
      CONTRACTOR/SUBCONTRACTOR: ASPEN TECHNOLOGY, INC. 20 CROSBY DRIVE,
      BEDFORD, MA 01730.
 *** INPUT SUMMARY ***

 >>CURRENT RUN

   ORIGINAL RUN                           MARCH 12, 2020      
   3:59:30 P.M.                           THURSDAY    
   INPUT FILE: _3611bjw.inm
   RUN ID : _3611bjw
          1    ;
          2    ;Input file created by Aspen Plus Rel. 36.0 at 15:59:29 Thu Mar 12, 2020
          3    ;Directory E:\Dropbox\spring 2020\Capstone\biocap2020\Aspen\Full draft  Runid FULL DRAFT MARCH ELEVEN BEECHER UPDATED
          4    ;
          5
          6
          7    DYNAMICS
          8        DYNAMICS RESULTS=ON
          9
         10    IN-UNITS MET PRESSURE=bar TEMPERATURE=C DELTA-T=C PDROP=bar  &
         11            INVERSE-PRES='1/bar' SHORT-LENGTH=mm
         12
         13    DEF-STREAMS CONVEN ALL
         14
         15    MODEL-OPTION
         16
         17    DATABANKS 'APV100 PURE36' / 'APV100 AQUEOUS' / 'APV100 SOLIDS' &
         18             / 'APV100 INORGANIC' / 'APESV100 AP-EOS' /  &
         19            'NISTV100 NIST-TRC' / NOASPENPCD
         20
         21    PROP-SOURCES 'APV100 PURE36' / 'APV100 AQUEOUS' /  &
         22            'APV100 SOLIDS' / 'APV100 INORGANIC' / 'APESV100 AP-EOS' &
         23             / 'NISTV100 NIST-TRC'
         24
         25    COMPONENTS
         26        GLYCEROL C3H8O3 /
         27        TRIOL-01 C57H104O6 /
         28        TRILI-01 C57H98O6 /
         29        METHA-01 CH4O /
         30        METHY-01 C19H36O2 /
         31        METHY-02 C19H34O2 /
         32        UREA CH4N2O /
         33        CALCI-01 CAO /
         34        LANTH-01 LA2O3 /
         35        AMMON-01 H3N /
         36        GLYCE-01 C4H6O4-N1
         37
         38    CISOLID-COMPS CALCI-01 LANTH-01
         39
         40    SOLVE
         41        RUN-MODE MODE=SIM
         42
         43    FLOWSHEET
         44        BLOCK B4 IN=S6 OUT=S7 GLYCEROL
         45        BLOCK B3 IN=S5 OUT=S6 CATOUT
         46        BLOCK B1 IN=OILS METHANOL OUT=S4
         47        HIERARCHY B2
         48        CONNECT $C-1 IN=S1 OUT="B2.S4"
         49        CONNECT $C-3 IN=CAOIN OUT="B2.CATIN"
         50        CONNECT $C-2 IN="B2.S5" OUT=S5
         51        BLOCK B6 IN=S8 OUT=METHOUT BIODIES
         52        BLOCK B9 IN=GLYCEROL OUT=METHOUT2 S11
         53        BLOCK B8 IN=S11 LAOIN UREAIN OUT=S13
         54        BLOCK B12 IN=S13 OUT=S15 LAOOUT
         55        BLOCK B13 IN=S15 OUT=AMMONIA S17
         56        BLOCK B14 IN=S21 OUT=GLYOUT GC
         57        BLOCK B15 IN=S17 OUT=S21
         58        BLOCK HEATX1 IN=BIODIES S7 OUT=S3 S8
         59        BLOCK HEATX2 IN=METHMIX S4 OUT=METHREC S1
         60        BLOCK B10 IN=METHOUT S2 OUT=METHMIX
         61        BLOCK B5 IN=METHOUT2 OUT=S2
         62
         63    PROPERTIES SR-POLAR
         64        PROPERTIES IDEAL / NRTL
         65
         66    ESTIMATE ALL
         67
         68    PROP-DATA PCES-1
         69        IN-UNITS MET PRESSURE=bar TEMPERATURE=C DELTA-T=C PDROP=bar  &
         70            INVERSE-PRES='1/bar' SHORT-LENGTH=mm
         71        PROP-LIST OMEGA / DHVLB / VB / RGYR / RKTZRA / VLSTD
         72        PVAL UREA .5992461800 / 20985.95586 / 48.82570000 /  &
         73            2.6000000E-10 / .2351731880 / 48.82570000
         74        PROP-LIST RKTZRA / VLSTD
         75        PVAL CALCI-01 .2918596200 / 298.9063450
         76        PVAL GLYCE-01 .2037543860 / 69.23640000
         77
         78    PROP-DATA DHVLWT-1
         79        IN-UNITS MET PRESSURE=bar TEMPERATURE=C DELTA-T=C PDROP=bar  &
         80            INVERSE-PRES='1/bar' SHORT-LENGTH=mm
         81        PROP-LIST DHVLWT
         82        PVAL CALCI-01 5.38817025E+5 3396.850000 .3800000000 0.0  &
         83            3396.850000
         84
         85    PROP-DATA KLDIP-1
         86        IN-UNITS MET PRESSURE=bar TEMPERATURE=C DELTA-T=C PDROP=bar  &
         87            INVERSE-PRES='1/bar' SHORT-LENGTH=mm
         88        PROP-LIST KLDIP
         89        PVAL UREA .0494897448 1.57543997E-3 -1.0085909E-5  &
         90            2.44404255E-8 -2.254923E-11 191.8500000 424.8000000
         91        PVAL CALCI-01 -.6218197112 7.78300188E-4 -2.8775749E-7  &
         92            4.5627261E-11 -2.727830E-15 3396.850000 5686.650000
         93
         94    PROP-DATA MULAND-1
         95        IN-UNITS MET PRESSURE=bar TEMPERATURE=C DELTA-T=C PDROP=bar  &
         96            INVERSE-PRES='1/bar' SHORT-LENGTH=mm
         97        PROP-LIST MULAND
         98        PVAL UREA 129.3349773 -7951.576030 -18.41338230 191.8500000  &
         99            424.8000000
        100        PVAL CALCI-01 81.01615608 -12127.32210 -10.25255770  &
        101            1126.850000 1706.850000
        102
        103    PROP-DATA PLXANT-1
        104        IN-UNITS MET PRESSURE=bar TEMPERATURE=C DELTA-T=C PDROP=bar  &
        105            INVERSE-PRES='1/bar' SHORT-LENGTH=mm
        106        PROP-LIST PLXANT
        107        PVAL UREA 77.19179774 -10639.35530 0.0 0.0 -8.846083610  &
        108            3.4142003E-18 6.000000000 191.8500000 431.8500000
        109
        110    PROP-DATA SIGDIP-1
        111        IN-UNITS MET PRESSURE=bar TEMPERATURE=C DELTA-T=C PDROP=bar  &
        112            INVERSE-PRES='1/bar' SHORT-LENGTH=mm
        113        PROP-LIST SIGDIP
        114        PVAL UREA 156.7709600 1.222222220 5.9537296E-10  &
        115            -6.635066E-10 2.6632382E-10 191.8500000 417.7500000
        116        PVAL GLYCE-01 156.3532160 1.222222220 5.9089352E-10  &
        117            -6.640628E-10 2.6313812E-10 323.7990000 543.1900000
        118        PVAL CALCI-01 139.2135830 1.222222220 -2.171954E-10  &
        119            2.3955375E-10 -9.673330E-11 3396.850000 5626.450000
        120
        121    PROP-DATA HOCETA-1
        122        IN-UNITS MET PRESSURE=bar TEMPERATURE=C DELTA-T=C PDROP=bar  &
        123            INVERSE-PRES='1/bar' SHORT-LENGTH=mm
        124        PROP-LIST HOCETA
        125        BPVAL METHA-01 METHA-01 1.630000000
        126        BPVAL METHA-01 AMMON-01 .2000000000
        127        BPVAL AMMON-01 METHA-01 .2000000000
        128
        129    PROP-DATA NRTL-1
        130        IN-UNITS MET PRESSURE=bar TEMPERATURE=C DELTA-T=C PDROP=bar  &
        131            INVERSE-PRES='1/bar' SHORT-LENGTH=mm
        132        PROP-LIST NRTL
        133        BPVAL GLYCEROL METHA-01 0.0 -218.5217000 .3000000000 0.0  &
        134            0.0 0.0 25.00000000 62.50000000
        135        BPVAL METHA-01 GLYCEROL 0.0 547.8301000 .3000000000 0.0  &
        136            0.0 0.0 25.00000000 62.50000000
        137
        138    STREAM CAOIN
        139        SUBSTREAM MIXED TEMP=25. PRES=5. MOLE-FLOW=3.
        140        MOLE-FRAC CALCI-01 1.
        141
        142    STREAM LAOIN
        143        SUBSTREAM MIXED TEMP=25. PRES=1. MASS-FLOW=88.
        144        MOLE-FRAC LANTH-01 1.
        145
        146    STREAM METHANOL
        147        SUBSTREAM MIXED TEMP=25. PRES=5. MOLE-FLOW=900.
        148        MOLE-FRAC METHA-01 1.
        149
        150    STREAM OILS
        151        SUBSTREAM MIXED TEMP=25. PRES=5. MOLE-FLOW=100.
        152        MOLE-FRAC TRIOL-01 0.6 / TRILI-01 0.4
        153
        154    STREAM S8
        155        SUBSTREAM MIXED TEMP=65 PRES=1
        156        MOLE-FLOW GLYCEROL 1.47047789 / TRIOL-01 0.970264774 /  &
        157            TRILI-01 0.646847845 / METHA-01 355.070227 / METHY-01  &
        158            177.089136 / METHY-02 118.05943
        159
        160    STREAM UREAIN
        161        SUBSTREAM MIXED TEMP=25. PRES=1. MASS-FLOW=6000.
        162        MOLE-FRAC UREA 1.
        163
        164    BLOCK B1 MIXER
        165        PARAM PRES=1. NPHASE=1 PHASE=L TOL=0.01 T-EST=25.
        166        PROPERTIES IDEAL FREE-WATER=STEAM-TA SOLU-WATER=3  &
        167            TRUE-COMPS=YES
        168        BLOCK-OPTION FREE-WATER=NO
        169
        170    BLOCK B10 MIXER
        171        PARAM PRES=1. NPHASE=1 PHASE=V
        172        BLOCK-OPTION FREE-WATER=NO
        173
        174    BLOCK B9 FLASH2
        175        PARAM TEMP=100. PRES=0.2 MAXIT=30
        176        PROPERTIES SR-POLAR FREE-WATER=STEAM-TA SOLU-WATER=3  &
        177            TRUE-COMPS=YES
        178
        179    BLOCK B13 FLASH2
        180        PARAM PRES=0.5 DUTY=0.
        181
        182    BLOCK B4 DECANTER
        183        PARAM TEMP=65. PRES=1. LL-METH=EQ-SOLVE L2-COMPS=METHA-01  &
        184            L2-CUTOFF=0.5 MAXIT=30
        185
        186    BLOCK HEATX1 HEATX
        187        PARAM T-COLD=105. CALC-METHOD=SHORTCUT
        188        FEEDS HOT=BIODIES COLD=S7
        189        OUTLETS-HOT S3
        190        OUTLETS-COLD S8
        191        PROPERTIES NRTL FREE-WATER=STEAM-TA SOLU-WATER=3  &
        192            TRUE-COMPS=YES / NRTL FREE-WATER=STEAM-TA SOLU-WATER=3  &
        193            TRUE-COMPS=YES
        194        HOT-SIDE DPPARMOPT=NO
        195        COLD-SIDE DPPARMOPT=NO
        196        TQ-PARAM CURVE=YES
        197
        198    BLOCK HEATX2 HEATX
        199        PARAM T-COLD=65. PRES-HOT=1. PRES-COLD=1.  &
        200            CALC-METHOD=SHORTCUT
        201        FEEDS HOT=METHMIX COLD=S4
        202        OUTLETS-HOT METHREC
        203        OUTLETS-COLD S1
        204        PROPERTIES SR-POLAR FREE-WATER=STEAM-TA SOLU-WATER=3  &
        205            TRUE-COMPS=YES / SR-POLAR FREE-WATER=STEAM-TA  &
        206            SOLU-WATER=3 TRUE-COMPS=YES
        207        FLASH-SPECS METHREC NPHASE=2 FREE-WATER=NO
        208        FLASH-SPECS S1 NPHASE=1 PHASE=L FREE-WATER=NO
        209        HOT-SIDE DPPARMOPT=NO
        210        COLD-SIDE DPPARMOPT=NO
        211        TQ-PARAM CURVE=YES NPOINT=20
        212
        213    BLOCK B6 RADFRAC
        214        PARAM NSTAGE=3 ALGORITHM=NONIDEAL INIT-OPTION=STANDARD  &
        215            MAXOL=100 DAMPING=NONE
        216        COL-CONFIG CONDENSER=PARTIAL-V
        217        FEEDS S8 2 ABOVE-STAGE
        218        PRODUCTS BIODIES 3 L / METHOUT 1 V
        219        P-SPEC 1 1. / 2 1.
        220        COL-SPECS MASS-D:F=0.17 MASS-RR=3.
        221        PROPERTIES NRTL FREE-WATER=STEAM-TA SOLU-WATER=3  &
        222            TRUE-COMPS=YES
        223
        224    BLOCK B14 RADFRAC
        225        PARAM NSTAGE=16 ALGORITHM=STANDARD MAXOL=25 DAMPING=NONE
        226        COL-CONFIG CONDENSER=PARTIAL-V
        227        FEEDS S21 10
        228        PRODUCTS GLYOUT 1 V / GC 16 L
        229        P-SPEC 1 1.
        230        COL-SPECS MASS-D:F=0.18 MOLE-RR=3.
        231
        232    BLOCK B8 RSTOIC
        233        PARAM TEMP=140. PRES=3. <kPa>
        234        STOIC 1 MIXED GLYCEROL -1. / UREA -1. / AMMON-01 2. /  &
        235            GLYCE-01 1.
        236        CONV 1 MIXED GLYCEROL 0.85
        237
        238    HIERARCHY B2
        239
        240
        241    DEF-STREAMS CONVEN ALL
        242
        243    SOLVE
        244        PARAM METHOD=SM PROCESS=BATCH
        245        RUN-MODE MODE=SIM
        246
        247    FLOWSHEET
        248        BLOCK B1 IN=S1 OUT=S5
        249        BLOCK B2 IN=S4 CATIN OUT=S1
        250
        251    PROPERTIES SR-POLAR FREE-WATER=STEAM-TA SOLU-WATER=3  &
        252            TRUE-COMPS=YES
        253        PROPERTIES IDEAL / NRTL
        254
        255    BLOCK B2 MIXER
        256        PARAM PRES=1. NPHASE=1 PHASE=L
        257        PROPERTIES SR-POLAR FREE-WATER=STEAM-TA SOLU-WATER=3  &
        258            TRUE-COMPS=YES
        259        BLOCK-OPTION FREE-WATER=NO
        260
        261    BLOCK B1 BATCHOP
        262        PARAM TYPE=T-SPEC PRES=1. TEMP=65. NPHASE=1 PHASE=L
        263        INIT-COND FEED-TIME=1.
        264        DISCHARGE DISCHARGE-T=1.
        265        REACTIONS RXN-IDS=R-1 R-2
        266        BLOCK-OPTION FREE-WATER=NO
        267
        268    EO-CONV-OPTI
        269
        270    BATCH-OPTS
        271        PARAM MAX-TIME=6. OUTPUT-INT=0.05
        272
        273    ENDHIERARCHY B2
        274
        275    BLOCK B15 PUMP
        276        PARAM DELP=0.5
        277
        278    BLOCK B5 COMPR
        279        PARAM TYPE=ISENTROPIC PRES=1. SB-MAXIT=30 SB-TOL=0.0001
        280
        281    BLOCK B3 CFUGE
        282        PARAM TYPE=SOLIDS-SEP NPHASE=2 PRES=1. DELT=0.
        283        SOLIDS-SEP SOLID-SPLIT=1. FLUID-SPLIT=1.
        284        PROPERTIES NRTL FREE-WATER=STEAM-TA SOLU-WATER=3  &
        285            TRUE-COMPS=YES
        286
        287    BLOCK B12 CFUGE
        288        PARAM TYPE=SOLIDS-SEP NPHASE=2 PRES=1.
        289        SOLIDS-SEP SOLID-SPLIT=1. FLUID-SPLIT=1.
        290
        291    EO-CONV-OPTI
        292
        293    STREAM-REPOR MOLEFLOW
        294
        295    PROPERTY-REP PCES
        296
        297    REACTIONS R-1 LHHW
        298        REAC-DATA 1
        299        RATE-CON 1 PRE-EXP=0.07 ACT-ENERGY=16.6 <kJ/mol>
        300        STOIC 1 MIXED TRIOL-01 -1. / METHA-01 -3. / METHY-01 3. / &
        301            GLYCEROL 1.
        302        DFORCE-EXP-1 1 MIXED TRIOL-01 1. / MIXED METHA-01 0. /  &
        303            MIXED METHY-01 0. / MIXED GLYCEROL 0.
        304        DFORCE-EQ-1 REACNO=1 A=0.
        305        DFORCE-EQ-2 REACNO=1 A=-52.95
        306
        307    REACTIONS R-2 LHHW
        308        REAC-DATA 1
        309        RATE-CON 1 PRE-EXP=0.07 ACT-ENERGY=16.6 <kJ/mol>
        310        STOIC 1 MIXED TRILI-01 -1. / METHA-01 -3. / GLYCEROL 1. / &
        311            METHY-02 3.
        312        DFORCE-EXP-1 1 MIXED TRILI-01 1. / MIXED METHA-01 0. /  &
        313            MIXED GLYCEROL 0. / MIXED METHY-02 0.
        314        DFORCE-EQ-1 REACNO=1 A=0.
        315        DFORCE-EQ-2 REACNO=1 A=-52.95
        316
        317    PROP-TABLE PTENV-1 PTENVELOPE
        318        PROPERTIES SR-POLAR FREE-WATER=STEAM-TA SOLU-WATER=3  &
        319            TRUE-COMPS=YES
        320        MOLE-FLOW METHA-01 1.
        321        ENVELOPES VFRAC=0
        322        PARAM MAXPT=100 TINIT=0.
        323        TABULATE
        324
        325    PROP-TABLE BINRY-2 PROPS
        326        IN-UNITS MET PRESSURE=bar TEMPERATURE=C DELTA-T=C PDROP=bar  &
        327            INVERSE-PRES='1/bar' SHORT-LENGTH=mm
        328        ANALYSIS ANAL-TYPE=GIBBS UNITS='cal/mol'
        329        PROPERTIES SR-POLAR FREE-WATER=STEAM-TA SOLU-WATER=3  &
        330            TRUE-COMPS=YES
        331        MOLE-FLOW GLYCEROL 1 /  METHY-01  1
        332        STATE PRES=1.
        333        VARY TEMP
        334        RANGE LIST=40.
        335        VARY MOLEFRAC COMP=GLYCEROL
        336        RANGE VARVALUE=RANGE LOWER=0.0 UPPER=1.0 NPOINT=50
        337        PARAM NPHASE=3
        338
        339    PROP-TABLE PURE-1 PROPS
        340        IN-UNITS MET PRESSURE=bar TEMPERATURE=C DELTA-T=C PDROP=bar  &
        341            INVERSE-PRES='1/bar' SHORT-LENGTH=mm
        342        ANALYSIS ANAL-TYPE=PURE PURE-PROP='PHI' PURE-PHASES= L
        343        MOLE-FLOW METHA-01 1
        344        PROPERTIES SR-POLAR FREE-WATER=STEAM-TA SOLU-WATER=3  &
        345            TRUE-COMPS=YES
        346        VARY TEMP
        347        RANGE VARVALUE=RANGE LOWER=0 UPPER=100.0000000 NPOINT=50
        348        VARY PRES
        349        RANGE LIST=1.013250000
        350        PARAM
        351    ;
        352    ;
        353    ;
        354    ;
        355    ;
Added container block B2
 *** INPUT TRANSLATOR MESSAGES ***

  *** THIS RUN USES THE PROPERTIES ENTERPRISE DATABASE ***
      SQLLOCALDB.APESV100 : (DATAVERSION - 36.0.0.1)                          
      SQLLOCALDB.APV100 : (DATAVERSION - 36.0.0.21)                           
      SQLLOCALDB.FACTV100 : (DATAVERSION - 36.0.0.1)                          
      SQLLOCALDB.NISTV100 : (DATAVERSION - 36.0.0.15)                         

      INFORMATION IN PHYSICAL PROPERTY SYSTEM                  (PCERTE.10)      
      STRUCTURE FOR COMPONENT TRILI-01 HAS NOT BEEN DEFINED.                    
      PCES CANNOT USE GROUP-CONTRIBUTION METHODS TO ESTIMATE MISSING PROPERTIES.
      USE THE STRUCTURES PARAGRAPH TO DEFINE STRUCTURES OF THIS COMPONENT.      

      INFORMATION IN PHYSICAL PROPERTY SYSTEM                  (PCERTE.10)      
      STRUCTURE FOR COMPONENT UREA HAS NOT BEEN DEFINED.                        
      PCES CANNOT USE GROUP-CONTRIBUTION METHODS TO ESTIMATE MISSING PROPERTIES.
      USE THE STRUCTURES PARAGRAPH TO DEFINE STRUCTURES OF THIS COMPONENT.      

      INFORMATION IN PHYSICAL PROPERTY SYSTEM                  (PCERTE.10)      
      STRUCTURE FOR COMPONENT CALCI-01 HAS NOT BEEN DEFINED.                    
      PCES CANNOT USE GROUP-CONTRIBUTION METHODS TO ESTIMATE MISSING PROPERTIES.
      USE THE STRUCTURES PARAGRAPH TO DEFINE STRUCTURES OF THIS COMPONENT.      

      INFORMATION IN PHYSICAL PROPERTY SYSTEM                  (PCERTE.10)      
      STRUCTURE FOR COMPONENT LANTH-01 HAS NOT BEEN DEFINED.                    
      PCES CANNOT USE GROUP-CONTRIBUTION METHODS TO ESTIMATE MISSING PROPERTIES.
      USE THE STRUCTURES PARAGRAPH TO DEFINE STRUCTURES OF THIS COMPONENT.      

      INFORMATION IN PHYSICAL PROPERTY SYSTEM                  (PCERTE.10)      
      STRUCTURE FOR COMPONENT GLYCE-01 HAS NOT BEEN DEFINED.                    
      PCES CANNOT USE GROUP-CONTRIBUTION METHODS TO ESTIMATE MISSING PROPERTIES.
      USE THE STRUCTURES PARAGRAPH TO DEFINE STRUCTURES OF THIS COMPONENT.      

      INFORMATION IN PHYSICAL PROPERTY SYSTEM                  (LOADMW.5)       
      MW AVAILABLE FOR COMPONENT TRILI-01 IS DIFFERENT FROM MW                  
      CALCULATED FROM FORMULA (ATOMNO/NOATOM).  CALCULATED VALUE IS USED.       
      AVAILABLE MW =   879.3840     CALCULATED MW =   879.4015                  

  *   WARNING IN PHYSICAL PROPERTY SYSTEM                      (LCLIMS.4)       
      PARAMETER DHVLWT/ELEMENT  1 (DATA SET 1)                                  
      UPPER BOUND VIOLATED FOR COMPONENT CALCI-01                               
      VALUE =  0.22559E+10, UPPER BOUND =  0.60000E+09                          

  *   WARNING IN PHYSICAL PROPERTY SYSTEM                      (LCLIMS.4)       
      PARAMETER DHVLWT/ELEMENT  5 (DATA SET 1)                                  
      UPPER BOUND VIOLATED FOR COMPONENT CALCI-01                               
      VALUE =   3670.0    , UPPER BOUND =   1500.0                              

  *   WARNING WHILE CHECKING INPUT SPECIFICATIONS              (PRPCHK.1)       
      INCONSISTENT PROPERTIES DETECTED FOR 5 STREAMS                            
      SOURCE BLOCK        PROPERTIES STREAM   DESTINATION BLOCK   PROPERTIES    
      =================== ========== ======== =================== ==========    
      B3                  NRTL       S6       B4                  SR-POLAR      
      B2.B1               SR-POLAR   S5       B3                  NRTL          
      B4                  SR-POLAR   S7       HEATX1              NRTL          
      B1                  IDEAL      S4       HEATX2              SR-POLAR      
      B6                  NRTL       METHOUT  B10                 SR-POLAR      
 
 

 PDF updated                                                                      TIME =      3.24


 THE FOLLOWING PURE COMPONENT PARAMETERS ARE ESTIMATED FOR MODEL ESRKU:


 COMPONENT GLYCEROL
      POLAR PARAMETER RKUPP0 =    -0.065662
                      RKUPP1 =     3.433459
                      RKUPP2 =    -6.929989

 COMPONENT TRIOL-01
      POLAR PARAMETER RKUPP0 =     4.099804
                      RKUPP1 =    -3.004889
                      RKUPP2 =     2.162829

 COMPONENT TRILI-01
      POLAR PARAMETER RKUPP0 =     4.075085
                      RKUPP1 =    -3.003402
                      RKUPP2 =     2.160700

 COMPONENT METHA-01
      POLAR PARAMETER RKUPP0 =     0.162227
                      RKUPP1 =    -1.430134
                      RKUPP2 =     0.008900

 COMPONENT METHY-01
      POLAR PARAMETER RKUPP0 =    -0.028342
                      RKUPP1 =   -11.709490
                      RKUPP2 =    14.975620

 COMPONENT METHY-02
      POLAR PARAMETER RKUPP0 =     0.959016
                      RKUPP1 =    -2.964248
                      RKUPP2 =     2.123185

 COMPONENT UREA    
      POLAR PARAMETER RKUPP0 =    -0.323045
                      RKUPP1 =    -2.966432
                      RKUPP2 =     2.198500

 COMPONENT CALCI-01
      POLAR PARAMETER RKUPP0 =     0.711866
                      RKUPP1 =    -4.328770
                      RKUPP2 =    -5.480186

 COMPONENT LANTH-01
      POLAR PARAMETER RKUPP0 =     0.000000
                      RKUPP1 =     0.000000
                      RKUPP2 =     0.000000

 COMPONENT AMMON-01
      POLAR PARAMETER RKUPP0 =     0.036832
                      RKUPP1 =    -0.837919
                      RKUPP2 =    -0.809507

 COMPONENT GLYCE-01
      POLAR PARAMETER RKUPP0 =     0.000000
                      RKUPP1 =     0.000000
                      RKUPP2 =     0.000000

 THE FOLLOWING BINARY-INTERACTION PARAMETERS ARE ESTIMATED FOR MODEL ESRKU:


 BINARY GLYCEROL - TRIOL-01

      INTERACTION PARAMETERS NOT PREDICTED BECAUSE UNIFAC GENERATES VERY LOW OR HIGH PRESSURE DATA

 BINARY GLYCEROL - TRILI-01

      INTERACTION PARAMETERS NOT PREDICTED BECAUSE UNIFAC GROUP PARAMETERS ARE MISSING

 BINARY GLYCEROL - METHA-01
      RKUKA0 =   -0.121950    
      RKUKA2 =     23.8381    
      RKULA0 =    0.341113E-01
      RKULA2 =    -10.0315    

      FOR     298.15 (K) <= T <=    318.15 (K)


 BINARY GLYCEROL - METHY-01

      INTERACTION PARAMETERS NOT PREDICTED BECAUSE UNIFAC GENERATES VERY LOW OR HIGH PRESSURE DATA

 BINARY GLYCEROL - METHY-02

      INTERACTION PARAMETERS NOT PREDICTED BECAUSE UNIFAC GENERATES VERY LOW OR HIGH PRESSURE DATA

 BINARY GLYCEROL - UREA    

      INTERACTION PARAMETERS NOT PREDICTED BECAUSE UNIFAC GROUP PARAMETERS ARE MISSING

 BINARY GLYCEROL - CALCI-01

      INTERACTION PARAMETERS NOT PREDICTED BECAUSE UNIFAC GROUP PARAMETERS ARE MISSING

 BINARY GLYCEROL - LANTH-01

      INTERACTION PARAMETERS CANNOT BE PREDICTED USING UNIFAC

 BINARY GLYCEROL - GLYCE-01

      INTERACTION PARAMETERS NOT PREDICTED BECAUSE UNIFAC GROUP PARAMETERS ARE MISSING

 BINARY TRIOL-01 - TRILI-01

      INTERACTION PARAMETERS NOT PREDICTED BECAUSE UNIFAC GROUP PARAMETERS ARE MISSING

 BINARY TRIOL-01 - METHA-01

      INTERACTION PARAMETERS NOT PREDICTED BECAUSE UNIFAC GENERATES VERY LOW OR HIGH PRESSURE DATA

 BINARY TRIOL-01 - METHY-01

      INTERACTION PARAMETERS NOT PREDICTED BECAUSE UNIFAC GENERATES VERY LOW OR HIGH PRESSURE DATA

 BINARY TRIOL-01 - METHY-02

      INTERACTION PARAMETERS NOT PREDICTED BECAUSE UNIFAC GENERATES VERY LOW OR HIGH PRESSURE DATA

 BINARY TRIOL-01 - UREA    

      INTERACTION PARAMETERS NOT PREDICTED BECAUSE UNIFAC GROUP PARAMETERS ARE MISSING

 BINARY TRIOL-01 - CALCI-01

      INTERACTION PARAMETERS NOT PREDICTED BECAUSE UNIFAC GROUP PARAMETERS ARE MISSING

 BINARY TRIOL-01 - LANTH-01

      INTERACTION PARAMETERS NOT PREDICTED BECAUSE UNIFAC GROUP PARAMETERS ARE MISSING

 BINARY TRIOL-01 - GLYCE-01

      INTERACTION PARAMETERS NOT PREDICTED BECAUSE UNIFAC GROUP PARAMETERS ARE MISSING

 BINARY TRILI-01 - METHA-01

      INTERACTION PARAMETERS NOT PREDICTED BECAUSE UNIFAC GROUP PARAMETERS ARE MISSING

 BINARY TRILI-01 - METHY-01

      INTERACTION PARAMETERS NOT PREDICTED BECAUSE UNIFAC GROUP PARAMETERS ARE MISSING

 BINARY TRILI-01 - METHY-02

      INTERACTION PARAMETERS NOT PREDICTED BECAUSE UNIFAC GROUP PARAMETERS ARE MISSING

 BINARY TRILI-01 - UREA    

      INTERACTION PARAMETERS NOT PREDICTED BECAUSE UNIFAC GROUP PARAMETERS ARE MISSING

 BINARY TRILI-01 - CALCI-01

      INTERACTION PARAMETERS NOT PREDICTED BECAUSE UNIFAC GROUP PARAMETERS ARE MISSING

 BINARY TRILI-01 - LANTH-01

      INTERACTION PARAMETERS NOT PREDICTED BECAUSE UNIFAC GROUP PARAMETERS ARE MISSING

 BINARY TRILI-01 - GLYCE-01

      INTERACTION PARAMETERS NOT PREDICTED BECAUSE UNIFAC GROUP PARAMETERS ARE MISSING

 BINARY METHA-01 - METHY-01
      RKUKA0 =   -0.597541E-01
      RKUKA2 =     2.71431    
      RKULA0 =   -0.139340E-01
      RKULA2 =    -11.3968    

      FOR     298.15 (K) <= T <=    318.15 (K)


 BINARY METHA-01 - METHY-02
      RKUKA0 =    0.153105E-01
      RKUKA2 =    -25.2241    
      RKULA0 =   -0.182201E-02
      RKULA2 =    -16.6520    

      FOR     298.15 (K) <= T <=    318.15 (K)


 BINARY METHA-01 - UREA    

      INTERACTION PARAMETERS NOT PREDICTED BECAUSE UNIFAC GROUP PARAMETERS ARE MISSING

 BINARY METHA-01 - CALCI-01

      INTERACTION PARAMETERS NOT PREDICTED BECAUSE UNIFAC GROUP PARAMETERS ARE MISSING

 BINARY METHA-01 - LANTH-01

      INTERACTION PARAMETERS CANNOT BE PREDICTED USING UNIFAC

 BINARY METHA-01 - GLYCE-01

      INTERACTION PARAMETERS NOT PREDICTED BECAUSE UNIFAC GROUP PARAMETERS ARE MISSING

 BINARY METHY-01 - METHY-02

      INTERACTION PARAMETERS NOT PREDICTED BECAUSE UNIFAC GENERATES VERY LOW OR HIGH PRESSURE DATA

 BINARY METHY-01 - UREA    

      INTERACTION PARAMETERS NOT PREDICTED BECAUSE UNIFAC GROUP PARAMETERS ARE MISSING

 BINARY METHY-01 - CALCI-01

      INTERACTION PARAMETERS NOT PREDICTED BECAUSE UNIFAC GROUP PARAMETERS ARE MISSING

 BINARY METHY-01 - LANTH-01

      INTERACTION PARAMETERS NOT PREDICTED BECAUSE UNIFAC GROUP PARAMETERS ARE MISSING

 BINARY METHY-01 - GLYCE-01

      INTERACTION PARAMETERS NOT PREDICTED BECAUSE UNIFAC GROUP PARAMETERS ARE MISSING

 BINARY METHY-02 - UREA    

      INTERACTION PARAMETERS NOT PREDICTED BECAUSE UNIFAC GROUP PARAMETERS ARE MISSING

 BINARY METHY-02 - CALCI-01

      INTERACTION PARAMETERS NOT PREDICTED BECAUSE UNIFAC GROUP PARAMETERS ARE MISSING

 BINARY METHY-02 - LANTH-01

      INTERACTION PARAMETERS NOT PREDICTED BECAUSE UNIFAC GROUP PARAMETERS ARE MISSING

 BINARY METHY-02 - GLYCE-01

      INTERACTION PARAMETERS NOT PREDICTED BECAUSE UNIFAC GROUP PARAMETERS ARE MISSING

 BINARY UREA     - CALCI-01

      INTERACTION PARAMETERS NOT PREDICTED BECAUSE UNIFAC GROUP PARAMETERS ARE MISSING

 BINARY UREA     - LANTH-01

      INTERACTION PARAMETERS CANNOT BE PREDICTED USING UNIFAC

 BINARY UREA     - GLYCE-01

      INTERACTION PARAMETERS NOT PREDICTED BECAUSE UNIFAC GROUP PARAMETERS ARE MISSING

 BINARY CALCI-01 - LANTH-01

      INTERACTION PARAMETERS CANNOT BE PREDICTED USING UNIFAC

 BINARY CALCI-01 - GLYCE-01

      INTERACTION PARAMETERS NOT PREDICTED BECAUSE UNIFAC GROUP PARAMETERS ARE MISSING

 BINARY LANTH-01 - GLYCE-01

      INTERACTION PARAMETERS CANNOT BE PREDICTED USING UNIFAC

 *** CALCULATION TRACE ***


 *** FLOWSHEET ANALYSIS MESSAGES ***

 FLOWSHEET CONNECTIVITY BY STREAMS       

 FLOWSHEET SECTION GLOBAL  
   STREAM     SOURCE     DEST           STREAM     SOURCE     DEST
   METHANOL   ----       B1             OILS       ----       B1      
   CAOIN      ----       $C-3           UREAIN     ----       B8      
   LAOIN      ----       B8             S7         B4         HEATX1  
   GLYCEROL   B4         B9             S6         B3         B4      
   CATOUT     B3         ----           S4         B1         HEATX2  
   S5         $C-2       B3             METHOUT    B6         B10     
   BIODIES    B6         HEATX1         METHOUT2   B9         B5      
   S11        B9         B8             S13        B8         B12     
   S15        B12        B13            LAOOUT     B12        ----    
   AMMONIA    B13        ----           S17        B13        B15     
   GLYOUT     B14        ----           GC         B14        ----    
   S21        B15        B14            S3         HEATX1     ----    
   S8         HEATX1     B6             METHREC    HEATX2     ----    
   S1         HEATX2     $C-1           METHMIX    B10        HEATX2  
   S2         B5         B10                                          

 FLOWSHEET CONNECTIVITY BY BLOCKS        

 FLOWSHEET SECTION GLOBAL  
   BLOCK        INLETS                         OUTLETS
   B4           S6                             S7 GLYCEROL                 
   B3           S5                             S6 CATOUT                   
   B1           OILS METHANOL                  S4                          
   $C-1         S1                             S4                          
   $C-3         CAOIN                          CATIN                       
   $C-2         S5                             S5                          
   B6           S8                             METHOUT BIODIES             
   B9           GLYCEROL                       METHOUT2 S11                
   B8           S11 LAOIN UREAIN               S13                         
   B12          S13                            S15 LAOOUT                  
   B13          S15                            AMMONIA S17                 
   B14          S21                            GLYOUT GC                   
   B15          S17                            S21                         
   HEATX1       BIODIES S7                     S3 S8                       
   HEATX2       METHMIX S4                     METHREC S1                  
   B10          METHOUT S2                     METHMIX                     
   B5           METHOUT2                       S2                          

      BATCH CONVERGENCE BLOCK $BASVR01 HAS BEEN DEFINED

      BLOCK $OLVER02 (METHOD: WEGSTEIN) HAS BEEN DEFINED TO CONVERGE
               STREAMS: GLYCEROL  S8

      COMPUTATION ORDER FOR THE FLOWSHEET IS:
      $C-3 B1 
      $OLVER02 B6 B9 B5 B10 HEATX2 $C-1 
      |  B2.$BASVR01 B2.B2 B2.B1 
      |  (RETURN B2.$BASVR01) 
      |  $C-2 B3 B4 HEATX1 
      (RETURN $OLVER02) 
      B8 B12 B13 B15 B14 

Calculations begin                                                              time      0.08


 SIMULATION CALCULATIONS BEGIN                                                    TIME =      0.08

      ENTHALPY CALCULATION FOR INLET STREAM CAOIN OF BLOCK $C-3                   TIME =      0.08
      KODE = 2   NO. TEMP ITER =    1     TEMP =  298.150    
      KPHASE =    3 KODE =    2 T =  298.150     P =  500000.     Q =  0.00000    

      UOS BLOCK $C-3     MODEL: DUPL                                              TIME =      0.08

      ENTHALPY CALCULATION FOR INLET STREAM OILS OF BLOCK B1                      TIME =      0.08
      KODE = 2  NTRIAL =   3  T = 298.1500  P =  500000.      V =  0.00000      Q =  0.00000    

      ENTHALPY CALCULATION FOR INLET STREAM METHANOL OF BLOCK B1                  TIME =      0.08
      KODE = 2  NTRIAL =   1  T = 298.1500  P =  500000.      V =  0.00000      Q =  0.00000    

      UOS BLOCK B1       MODEL: MIXER                                             TIME =      0.08
      KODE = 1   NO. TEMP ITER =    1     TEMP =  298.150    
      KPHASE =    2 KODE =    1 T =  298.150     P =  100000.     Q =  0.00000    

      CONVERGENCE BLOCK $OLVER02  METHOD: WEGSTEIN                                TIME =      0.08
      ITER   0 For Tear Streams: GLYCEROL  S8

      ENTHALPY CALCULATION FOR INLET STREAM S8 OF BLOCK B6                        TIME =      0.08
      KODE = 2  NTRIAL =   3  T = 338.1500  P =  100000.      V =  0.00000      Q =  0.00000    

      UOS BLOCK B6       MODEL: RADFRAC                                           TIME =      0.08

       Convergence iterations:
         OL   ML   IL     Err/Tol
          1    1   10      5317.4    
          2    1   10      2557.5    
          3    1   10      7545.3    
          4    1   10      6573.9    
          5    1   10      2291.5    
          6    1   10      6880.0    
          7    1   10      3462.5    
          8    1   10      965.44    
          9    1   10      26831.    
         10    1   10      11155.    
         11    1   10      5900.4    
         12    1   10      5339.7    
         13    1   10      2747.9    
         14    1   10      2757.2    
         15    1   10      7448.3    
         16    1   10      11322.    
         17    1   10      4087.4    
         18    1   10      2801.3    
         19    1   10      7130.9    
         20    1   10      2649.1    
         21    1    9      2846.8    
         22    1   10      2648.7    
         23    1   10      5711.4    
         24    1   10      1861.0    
         25    1   10      2556.1    
         26    1   10      3759.6    
         27    1   10      4297.3    
         28    1   10      6147.3    
         29    1   10      6458.7    
         30    1   10      2992.9    
         31    1   10      20825.    
         32    1   10      10473.    
         33    1   10      3218.7    
         34    1   10      1400.5    
         35    1   10      7054.4    
         36    1   10      3782.3    
         37    1   10      7854.9    
         38    1   10      6548.3    
         39    1   10      6464.8    
         40    1   10      3990.0    
         41    1   10      17994.    
         42    1   10      4613.8    
         43    1   10      5557.2    
         44    1   10      3021.1    
         45    1   10      18362.    
         46    1   10      5886.1    
         47    1   10      1680.2    
         48    1   10      976.40    
         49    1    5      904.85    
         50    1    4      54.262    
         51    1    4      9.8367    
         52    1    3      5.6674    
         53    1    3     0.72100    

      UOS BLOCK B9       MODEL: FLASH2                                            TIME =      0.14

  *   WARNING WHILE EXECUTING UNIT OPERATIONS BLOCK: "B9" (MODEL: "FLASH2")     
                                                               (UFL01I.1)       
      ZERO FEED TO THE BLOCK.  BLOCK BYPASSED                                   

      UOS BLOCK B5       MODEL: COMPR                                             TIME =      0.14

  *   WARNING WHILE EXECUTING UNIT OPERATIONS BLOCK: "B5" (MODEL: "COMPR")      
                                                               (CMSTIN.1)       
      TOTAL FLOW IS ZERO. BLOCK IS BYPASSED.                                    
 

      UOS BLOCK B10      MODEL: MIXER                                             TIME =      0.14
      KODE = 1   NO. TEMP ITER =    5     TEMP =  512.100    
      KPHASE =    1 KODE =    1 T =  512.100     P =  100000.     Q =  0.00000    

      UOS BLOCK HEATX2   MODEL: HEATX                                             TIME =      0.14
      SPECIFICATION: COLD OUTLET TEMP      338.15    
      FLOW TYPE:     COUNTERCURRENT  
      HOT:  TIN=  512.10  PIN=0.10000E+06   TOUT=   14.22  POUT=0.10000E+06
      COLD: TIN=   10.00  PIN=0.10000E+06   TOUT=  338.15  POUT=0.10000E+06
                              DUTY=0.14002E+08

  **  ERROR WHILE EXECUTING UNIT OPERATIONS BLOCK: "HEATX2" (MODEL: "HEATX")    
                                                               (XFLASH.31)      
      FLASH RESULTS ARE WITHIN TOLERANCE, BUT MAY BE UNSATISFACTORY BECAUSE     
      EXTRAPOLATED EOS VAPOR VOLUME ROOT WAS USED FOR PROPERTY CALCULATIONS     
      (T= 14.2185 K, P= 1.0000D+05 Pa). FAILURE TO SOLVE 2-PHASE ADIABATIC      
      PROBLEM AS TP SUBPROBLEMS. T= 14.2185 P= 1.0000D+05 HCALC= -3.3904D+08    
      HFSPEC= -3.3904D+08                                                       

      UOS BLOCK $C-1     MODEL: DUPL                                              TIME =      0.14

      Batch Convergence Block $BASVR01 Hierarchy: B2                              TIME =      0.14

  *   WARNING WHILE EXECUTING BATCH CONVERGENC BLOCK: "$BASVR01" IN "B2"        
                                                               (WRTVARIN.1)     
      No active unit procedure is detected. The simulation will run to          
      the maximum integration time of 6.000 HR                                  

      Start task machine for batch B2.$BASVR01
         # Tasks =    0 NVTEAR =    0 NVTASK =    0 NVVARG =    0

      UOS BLOCK B2       MODEL: MIXER        HIERARCHY: B2                        TIME =      0.14
      KODE = 1   NO. TEMP ITER =    6     TEMP =  338.097    
      KPHASE =    2 KODE =    1 T =  338.097     P =  100000.     Q =  0.00000    

      UOS BLOCK B1       MODEL: BATCHOP      HIERARCHY: B2                        TIME =      0.14

      UOS BLOCK B1       MODEL: BATCHOP      HIERARCHY: B2                        TIME =      0.14
      STREAM B2.S5 WILL BE FLASHED FOR PROPERTY CALCULATIONS.
      KODE = 2   NO. TEMP ITER =    1     TEMP =  338.097    
      KPHASE =    2 KODE =    2 T =  338.097     P =  100000.     Q =-4.834599E-06

      UOS BLOCK B1       MODEL: BATCHOP      HIERARCHY: B2                        TIME =      0.21

      Integrating from  0.0000     to 0.10000E-01 by 0.10000E-01 HR

      UOS BLOCK B2       MODEL: MIXER        HIERARCHY: B2                        TIME =      0.24
      KODE = 1   NO. TEMP ITER =    1     TEMP =  338.097    
      KPHASE =    2 KODE =    1 T =  338.097     P =  100000.     Q =  0.00000    

      UOS BLOCK B1       MODEL: BATCHOP      HIERARCHY: B2                        TIME =      0.24

      UOS BLOCK B1       MODEL: BATCHOP      HIERARCHY: B2                        TIME =      0.25

      Integrating from 0.10000E-01 to 0.20000E-01 by 0.10000E-01 HR

      UOS BLOCK B2       MODEL: MIXER        HIERARCHY: B2                        TIME =      0.25
      KODE = 1   NO. TEMP ITER =    1     TEMP =  338.097    
      KPHASE =    2 KODE =    1 T =  338.097     P =  100000.     Q =  0.00000    

      UOS BLOCK B1       MODEL: BATCHOP      HIERARCHY: B2                        TIME =      0.25

      UOS BLOCK B1       MODEL: BATCHOP      HIERARCHY: B2                        TIME =      0.25

      Integrating from 0.20000E-01 to 0.30000E-01 by 0.10000E-01 HR

      UOS BLOCK B2       MODEL: MIXER        HIERARCHY: B2                        TIME =      0.25
      KODE = 1   NO. TEMP ITER =    1     TEMP =  338.097    
      KPHASE =    2 KODE =    1 T =  338.097     P =  100000.     Q =  0.00000    

      UOS BLOCK B1       MODEL: BATCHOP      HIERARCHY: B2                        TIME =      0.25

      UOS BLOCK B1       MODEL: BATCHOP      HIERARCHY: B2                        TIME =      0.25

      Integrating from 0.30000E-01 to 0.40000E-01 by 0.10000E-01 HR

      UOS BLOCK B2       MODEL: MIXER        HIERARCHY: B2                        TIME =      0.25
      KODE = 1   NO. TEMP ITER =    1     TEMP =  338.097    
      KPHASE =    2 KODE =    1 T =  338.097     P =  100000.     Q =  0.00000    

      UOS BLOCK B1       MODEL: BATCHOP      HIERARCHY: B2                        TIME =      0.25

      UOS BLOCK B1       MODEL: BATCHOP      HIERARCHY: B2                        TIME =      0.25

      Integrating from 0.40000E-01 to 0.50000E-01 by 0.10000E-01 HR

      UOS BLOCK B2       MODEL: MIXER        HIERARCHY: B2                        TIME =      0.25
      KODE = 1   NO. TEMP ITER =    1     TEMP =  338.097    
      KPHASE =    2 KODE =    1 T =  338.097     P =  100000.     Q =  0.00000    

      UOS BLOCK B1       MODEL: BATCHOP      HIERARCHY: B2                        TIME =      0.25

      UOS BLOCK B1       MODEL: BATCHOP      HIERARCHY: B2                        TIME =      0.29

      Integrating from 0.50000E-01 to 0.60000E-01 by 0.10000E-01 HR

      UOS BLOCK B2       MODEL: MIXER        HIERARCHY: B2                        TIME =      0.32
      KODE = 1   NO. TEMP ITER =    1     TEMP =  338.097    
      KPHASE =    2 KODE =    1 T =  338.097     P =  100000.     Q =  0.00000    

      UOS BLOCK B1       MODEL: BATCHOP      HIERARCHY: B2                        TIME =      0.32

      UOS BLOCK B1       MODEL: BATCHOP      HIERARCHY: B2                        TIME =      0.32

      Integrating from 0.60000E-01 to 0.70000E-01 by 0.10000E-01 HR

      UOS BLOCK B2       MODEL: MIXER        HIERARCHY: B2                        TIME =      0.32
      KODE = 1   NO. TEMP ITER =    1     TEMP =  338.097    
      KPHASE =    2 KODE =    1 T =  338.097     P =  100000.     Q =  0.00000    

      UOS BLOCK B1       MODEL: BATCHOP      HIERARCHY: B2                        TIME =      0.32

      UOS BLOCK B1       MODEL: BATCHOP      HIERARCHY: B2                        TIME =      0.32

      Integrating from 0.70000E-01 to 0.80000E-01 by 0.10000E-01 HR

      UOS BLOCK B2       MODEL: MIXER        HIERARCHY: B2                        TIME =      0.32
      KODE = 1   NO. TEMP ITER =    1     TEMP =  338.097    
      KPHASE =    2 KODE =    1 T =  338.097     P =  100000.     Q =  0.00000    

      UOS BLOCK B1       MODEL: BATCHOP      HIERARCHY: B2                        TIME =      0.32

      UOS BLOCK B1       MODEL: BATCHOP      HIERARCHY: B2                        TIME =      0.32

      Integrating from 0.80000E-01 to 0.90000E-01 by 0.10000E-01 HR

      UOS BLOCK B2       MODEL: MIXER        HIERARCHY: B2                        TIME =      0.32
      KODE = 1   NO. TEMP ITER =    1     TEMP =  338.097    
      KPHASE =    2 KODE =    1 T =  338.097     P =  100000.     Q =  0.00000    

      UOS BLOCK B1       MODEL: BATCHOP      HIERARCHY: B2                        TIME =      0.33

      UOS BLOCK B1       MODEL: BATCHOP      HIERARCHY: B2                        TIME =      0.33

      Integrating from 0.90000E-01 to 0.10000     by 0.10000E-01 HR

      UOS BLOCK B2       MODEL: MIXER        HIERARCHY: B2                        TIME =      0.33
      KODE = 1   NO. TEMP ITER =    1     TEMP =  338.097    
      KPHASE =    2 KODE =    1 T =  338.097     P =  100000.     Q =  0.00000    

      UOS BLOCK B1       MODEL: BATCHOP      HIERARCHY: B2                        TIME =      0.33

      UOS BLOCK B1       MODEL: BATCHOP      HIERARCHY: B2                        TIME =      0.39

      Integrating from 0.10000     to 0.11000     by 0.10000E-01 HR

      UOS BLOCK B2       MODEL: MIXER        HIERARCHY: B2                        TIME =      0.42
      KODE = 1   NO. TEMP ITER =    1     TEMP =  338.097    
      KPHASE =    2 KODE =    1 T =  338.097     P =  100000.     Q =  0.00000    

      UOS BLOCK B1       MODEL: BATCHOP      HIERARCHY: B2                        TIME =      0.42

      UOS BLOCK B1       MODEL: BATCHOP      HIERARCHY: B2                        TIME =      0.42

      Integrating from 0.11000     to 0.12000     by 0.10000E-01 HR

      UOS BLOCK B2       MODEL: MIXER        HIERARCHY: B2                        TIME =      0.42
      KODE = 1   NO. TEMP ITER =    1     TEMP =  338.097    
      KPHASE =    2 KODE =    1 T =  338.097     P =  100000.     Q =  0.00000    

      UOS BLOCK B1       MODEL: BATCHOP      HIERARCHY: B2                        TIME =      0.42

      UOS BLOCK B1       MODEL: BATCHOP      HIERARCHY: B2                        TIME =      0.42

      Integrating from 0.12000     to 0.13000     by 0.10000E-01 HR

      UOS BLOCK B2       MODEL: MIXER        HIERARCHY: B2                        TIME =      0.42
      KODE = 1   NO. TEMP ITER =    1     TEMP =  338.097    
      KPHASE =    2 KODE =    1 T =  338.097     P =  100000.     Q =  0.00000    

      UOS BLOCK B1       MODEL: BATCHOP      HIERARCHY: B2                        TIME =      0.42

      UOS BLOCK B1       MODEL: BATCHOP      HIERARCHY: B2                        TIME =      0.42

      Integrating from 0.13000     to 0.14000     by 0.10000E-01 HR

      UOS BLOCK B2       MODEL: MIXER        HIERARCHY: B2                        TIME =      0.42
      KODE = 1   NO. TEMP ITER =    1     TEMP =  338.097    
      KPHASE =    2 KODE =    1 T =  338.097     P =  100000.     Q =  0.00000    

      UOS BLOCK B1       MODEL: BATCHOP      HIERARCHY: B2                        TIME =      0.42

      UOS BLOCK B1       MODEL: BATCHOP      HIERARCHY: B2                        TIME =      0.42

      Integrating from 0.14000     to 0.15000     by 0.10000E-01 HR

      UOS BLOCK B2       MODEL: MIXER        HIERARCHY: B2                        TIME =      0.42
      KODE = 1   NO. TEMP ITER =    1     TEMP =  338.097    
      KPHASE =    2 KODE =    1 T =  338.097     P =  100000.     Q =  0.00000    

      UOS BLOCK B1       MODEL: BATCHOP      HIERARCHY: B2                        TIME =      0.42

      UOS BLOCK B1       MODEL: BATCHOP      HIERARCHY: B2                        TIME =      0.46

      Integrating from 0.15000     to 0.16000     by 0.10000E-01 HR

      UOS BLOCK B2       MODEL: MIXER        HIERARCHY: B2                        TIME =      0.49
      KODE = 1   NO. TEMP ITER =    1     TEMP =  338.097    
      KPHASE =    2 KODE =    1 T =  338.097     P =  100000.     Q =  0.00000    

      UOS BLOCK B1       MODEL: BATCHOP      HIERARCHY: B2                        TIME =      0.49

      UOS BLOCK B1       MODEL: BATCHOP      HIERARCHY: B2                        TIME =      0.49

      Integrating from 0.16000     to 0.17000     by 0.10000E-01 HR

      UOS BLOCK B2       MODEL: MIXER        HIERARCHY: B2                        TIME =      0.50
      KODE = 1   NO. TEMP ITER =    1     TEMP =  338.097    
      KPHASE =    2 KODE =    1 T =  338.097     P =  100000.     Q =  0.00000    

      UOS BLOCK B1       MODEL: BATCHOP      HIERARCHY: B2                        TIME =      0.50

      UOS BLOCK B1       MODEL: BATCHOP      HIERARCHY: B2                        TIME =      0.50

      Integrating from 0.17000     to 0.18000     by 0.10000E-01 HR

      UOS BLOCK B2       MODEL: MIXER        HIERARCHY: B2                        TIME =      0.50
      KODE = 1   NO. TEMP ITER =    1     TEMP =  338.097    
      KPHASE =    2 KODE =    1 T =  338.097     P =  100000.     Q =  0.00000    

      UOS BLOCK B1       MODEL: BATCHOP      HIERARCHY: B2                        TIME =      0.50

      UOS BLOCK B1       MODEL: BATCHOP      HIERARCHY: B2                        TIME =      0.50

      Integrating from 0.18000     to 0.19000     by 0.10000E-01 HR

      UOS BLOCK B2       MODEL: MIXER        HIERARCHY: B2                        TIME =      0.50
      KODE = 1   NO. TEMP ITER =    1     TEMP =  338.097    
      KPHASE =    2 KODE =    1 T =  338.097     P =  100000.     Q =  0.00000    

      UOS BLOCK B1       MODEL: BATCHOP      HIERARCHY: B2                        TIME =      0.50

      UOS BLOCK B1       MODEL: BATCHOP      HIERARCHY: B2                        TIME =      0.50

      Integrating from 0.19000     to 0.20000     by 0.10000E-01 HR

      UOS BLOCK B2       MODEL: MIXER        HIERARCHY: B2                        TIME =      0.50
      KODE = 1   NO. TEMP ITER =    1     TEMP =  338.097    
      KPHASE =    2 KODE =    1 T =  338.097     P =  100000.     Q =  0.00000    

      UOS BLOCK B1       MODEL: BATCHOP      HIERARCHY: B2                        TIME =      0.50

      UOS BLOCK B1       MODEL: BATCHOP      HIERARCHY: B2                        TIME =      0.55

      Integrating from 0.20000     to 0.21000     by 0.10000E-01 HR

      UOS BLOCK B2       MODEL: MIXER        HIERARCHY: B2                        TIME =      0.58
      KODE = 1   NO. TEMP ITER =    1     TEMP =  338.097    
      KPHASE =    2 KODE =    1 T =  338.097     P =  100000.     Q =  0.00000    

      UOS BLOCK B1       MODEL: BATCHOP      HIERARCHY: B2                        TIME =      0.58

      UOS BLOCK B1       MODEL: BATCHOP      HIERARCHY: B2                        TIME =      0.58

      Integrating from 0.21000     to 0.22000     by 0.10000E-01 HR

      UOS BLOCK B2       MODEL: MIXER        HIERARCHY: B2                        TIME =      0.58
      KODE = 1   NO. TEMP ITER =    1     TEMP =  338.097    
      KPHASE =    2 KODE =    1 T =  338.097     P =  100000.     Q =  0.00000    

      UOS BLOCK B1       MODEL: BATCHOP      HIERARCHY: B2                        TIME =      0.58

      UOS BLOCK B1       MODEL: BATCHOP      HIERARCHY: B2                        TIME =      0.58

      Integrating from 0.22000     to 0.23000     by 0.10000E-01 HR

      UOS BLOCK B2       MODEL: MIXER        HIERARCHY: B2                        TIME =      0.58
      KODE = 1   NO. TEMP ITER =    1     TEMP =  338.097    
      KPHASE =    2 KODE =    1 T =  338.097     P =  100000.     Q =  0.00000    

      UOS BLOCK B1       MODEL: BATCHOP      HIERARCHY: B2                        TIME =      0.59

      UOS BLOCK B1       MODEL: BATCHOP      HIERARCHY: B2                        TIME =      0.59

      Integrating from 0.23000     to 0.24000     by 0.10000E-01 HR

      UOS BLOCK B2       MODEL: MIXER        HIERARCHY: B2                        TIME =      0.59
      KODE = 1   NO. TEMP ITER =    1     TEMP =  338.097    
      KPHASE =    2 KODE =    1 T =  338.097     P =  100000.     Q =  0.00000    

      UOS BLOCK B1       MODEL: BATCHOP      HIERARCHY: B2                        TIME =      0.59

      UOS BLOCK B1       MODEL: BATCHOP      HIERARCHY: B2                        TIME =      0.59

      Integrating from 0.24000     to 0.25000     by 0.10000E-01 HR

      UOS BLOCK B2       MODEL: MIXER        HIERARCHY: B2                        TIME =      0.59
      KODE = 1   NO. TEMP ITER =    1     TEMP =  338.097    
      KPHASE =    2 KODE =    1 T =  338.097     P =  100000.     Q =  0.00000    

      UOS BLOCK B1       MODEL: BATCHOP      HIERARCHY: B2                        TIME =      0.59

      UOS BLOCK B1       MODEL: BATCHOP      HIERARCHY: B2                        TIME =      0.63

      Integrating from 0.25000     to 0.26000     by 0.10000E-01 HR

      UOS BLOCK B2       MODEL: MIXER        HIERARCHY: B2                        TIME =      0.67
      KODE = 1   NO. TEMP ITER =    1     TEMP =  338.097    
      KPHASE =    2 KODE =    1 T =  338.097     P =  100000.     Q =  0.00000    

      UOS BLOCK B1       MODEL: BATCHOP      HIERARCHY: B2                        TIME =      0.67

      UOS BLOCK B1       MODEL: BATCHOP      HIERARCHY: B2                        TIME =      0.67

      Integrating from 0.26000     to 0.27000     by 0.10000E-01 HR

      UOS BLOCK B2       MODEL: MIXER        HIERARCHY: B2                        TIME =      0.67
      KODE = 1   NO. TEMP ITER =    1     TEMP =  338.097    
      KPHASE =    2 KODE =    1 T =  338.097     P =  100000.     Q =  0.00000    

      UOS BLOCK B1       MODEL: BATCHOP      HIERARCHY: B2                        TIME =      0.67

      UOS BLOCK B1       MODEL: BATCHOP      HIERARCHY: B2                        TIME =      0.67

      Integrating from 0.27000     to 0.28000     by 0.10000E-01 HR

      UOS BLOCK B2       MODEL: MIXER        HIERARCHY: B2                        TIME =      0.67
      KODE = 1   NO. TEMP ITER =    1     TEMP =  338.097    
      KPHASE =    2 KODE =    1 T =  338.097     P =  100000.     Q =  0.00000    

      UOS BLOCK B1       MODEL: BATCHOP      HIERARCHY: B2                        TIME =      0.67

      UOS BLOCK B1       MODEL: BATCHOP      HIERARCHY: B2                        TIME =      0.67

      Integrating from 0.28000     to 0.29000     by 0.10000E-01 HR

      UOS BLOCK B2       MODEL: MIXER        HIERARCHY: B2                        TIME =      0.67
      KODE = 1   NO. TEMP ITER =    1     TEMP =  338.097    
      KPHASE =    2 KODE =    1 T =  338.097     P =  100000.     Q =  0.00000    

      UOS BLOCK B1       MODEL: BATCHOP      HIERARCHY: B2                        TIME =      0.67

      UOS BLOCK B1       MODEL: BATCHOP      HIERARCHY: B2                        TIME =      0.67

      Integrating from 0.29000     to 0.30000     by 0.10000E-01 HR

      UOS BLOCK B2       MODEL: MIXER        HIERARCHY: B2                        TIME =      0.67
      KODE = 1   NO. TEMP ITER =    1     TEMP =  338.097    
      KPHASE =    2 KODE =    1 T =  338.097     P =  100000.     Q =  0.00000    

      UOS BLOCK B1       MODEL: BATCHOP      HIERARCHY: B2                        TIME =      0.67

      UOS BLOCK B1       MODEL: BATCHOP      HIERARCHY: B2                        TIME =      0.72

      Integrating from 0.30000     to 0.31000     by 0.10000E-01 HR

      UOS BLOCK B2       MODEL: MIXER        HIERARCHY: B2                        TIME =      0.75
      KODE = 1   NO. TEMP ITER =    1     TEMP =  338.097    
      KPHASE =    2 KODE =    1 T =  338.097     P =  100000.     Q =  0.00000    

      UOS BLOCK B1       MODEL: BATCHOP      HIERARCHY: B2                        TIME =      0.75

      UOS BLOCK B1       MODEL: BATCHOP      HIERARCHY: B2                        TIME =      0.75

      Integrating from 0.31000     to 0.32000     by 0.10000E-01 HR

      UOS BLOCK B2       MODEL: MIXER        HIERARCHY: B2                        TIME =      0.75
      KODE = 1   NO. TEMP ITER =    1     TEMP =  338.097    
      KPHASE =    2 KODE =    1 T =  338.097     P =  100000.     Q =  0.00000    

      UOS BLOCK B1       MODEL: BATCHOP      HIERARCHY: B2                        TIME =      0.75

      UOS BLOCK B1       MODEL: BATCHOP      HIERARCHY: B2                        TIME =      0.75

      Integrating from 0.32000     to 0.33000     by 0.10000E-01 HR

      UOS BLOCK B2       MODEL: MIXER        HIERARCHY: B2                        TIME =      0.75
      KODE = 1   NO. TEMP ITER =    1     TEMP =  338.097    
      KPHASE =    2 KODE =    1 T =  338.097     P =  100000.     Q =  0.00000    

      UOS BLOCK B1       MODEL: BATCHOP      HIERARCHY: B2                        TIME =      0.75

      UOS BLOCK B1       MODEL: BATCHOP      HIERARCHY: B2                        TIME =      0.75

      Integrating from 0.33000     to 0.34000     by 0.10000E-01 HR

      UOS BLOCK B2       MODEL: MIXER        HIERARCHY: B2                        TIME =      0.75
      KODE = 1   NO. TEMP ITER =    1     TEMP =  338.097    
      KPHASE =    2 KODE =    1 T =  338.097     P =  100000.     Q =  0.00000    

      UOS BLOCK B1       MODEL: BATCHOP      HIERARCHY: B2                        TIME =      0.76

      UOS BLOCK B1       MODEL: BATCHOP      HIERARCHY: B2                        TIME =      0.76

      Integrating from 0.34000     to 0.35000     by 0.10000E-01 HR

      UOS BLOCK B2       MODEL: MIXER        HIERARCHY: B2                        TIME =      0.76
      KODE = 1   NO. TEMP ITER =    1     TEMP =  338.097    
      KPHASE =    2 KODE =    1 T =  338.097     P =  100000.     Q =  0.00000    

      UOS BLOCK B1       MODEL: BATCHOP      HIERARCHY: B2                        TIME =      0.76

      UOS BLOCK B1       MODEL: BATCHOP      HIERARCHY: B2                        TIME =      0.80

      Integrating from 0.35000     to 0.36000     by 0.10000E-01 HR

      UOS BLOCK B2       MODEL: MIXER        HIERARCHY: B2                        TIME =      0.84
      KODE = 1   NO. TEMP ITER =    1     TEMP =  338.097    
      KPHASE =    2 KODE =    1 T =  338.097     P =  100000.     Q =  0.00000    

      UOS BLOCK B1       MODEL: BATCHOP      HIERARCHY: B2                        TIME =      0.85

      UOS BLOCK B1       MODEL: BATCHOP      HIERARCHY: B2                        TIME =      0.85

      Integrating from 0.36000     to 0.37000     by 0.10000E-01 HR

      UOS BLOCK B2       MODEL: MIXER        HIERARCHY: B2                        TIME =      0.85
      KODE = 1   NO. TEMP ITER =    1     TEMP =  338.097    
      KPHASE =    2 KODE =    1 T =  338.097     P =  100000.     Q =  0.00000    

      UOS BLOCK B1       MODEL: BATCHOP      HIERARCHY: B2                        TIME =      0.85

      UOS BLOCK B1       MODEL: BATCHOP      HIERARCHY: B2                        TIME =      0.85

      Integrating from 0.37000     to 0.38000     by 0.10000E-01 HR

      UOS BLOCK B2       MODEL: MIXER        HIERARCHY: B2                        TIME =      0.85
      KODE = 1   NO. TEMP ITER =    1     TEMP =  338.097    
      KPHASE =    2 KODE =    1 T =  338.097     P =  100000.     Q =  0.00000    

      UOS BLOCK B1       MODEL: BATCHOP      HIERARCHY: B2                        TIME =      0.85

      UOS BLOCK B1       MODEL: BATCHOP      HIERARCHY: B2                        TIME =      0.85

      Integrating from 0.38000     to 0.39000     by 0.10000E-01 HR

      UOS BLOCK B2       MODEL: MIXER        HIERARCHY: B2                        TIME =      0.85
      KODE = 1   NO. TEMP ITER =    1     TEMP =  338.097    
      KPHASE =    2 KODE =    1 T =  338.097     P =  100000.     Q =  0.00000    

      UOS BLOCK B1       MODEL: BATCHOP      HIERARCHY: B2                        TIME =      0.85

      UOS BLOCK B1       MODEL: BATCHOP      HIERARCHY: B2                        TIME =      0.85

      Integrating from 0.39000     to 0.40000     by 0.10000E-01 HR

      UOS BLOCK B2       MODEL: MIXER        HIERARCHY: B2                        TIME =      0.85
      KODE = 1   NO. TEMP ITER =    1     TEMP =  338.097    
      KPHASE =    2 KODE =    1 T =  338.097     P =  100000.     Q =  0.00000    

      UOS BLOCK B1       MODEL: BATCHOP      HIERARCHY: B2                        TIME =      0.85

      UOS BLOCK B1       MODEL: BATCHOP      HIERARCHY: B2                        TIME =      0.91

      Integrating from 0.40000     to 0.41000     by 0.10000E-01 HR

      UOS BLOCK B2       MODEL: MIXER        HIERARCHY: B2                        TIME =      0.96
      KODE = 1   NO. TEMP ITER =    1     TEMP =  338.097    
      KPHASE =    2 KODE =    1 T =  338.097     P =  100000.     Q =  0.00000    

      UOS BLOCK B1       MODEL: BATCHOP      HIERARCHY: B2                        TIME =      0.96

      UOS BLOCK B1       MODEL: BATCHOP      HIERARCHY: B2                        TIME =      0.96

      Integrating from 0.41000     to 0.42000     by 0.10000E-01 HR

      UOS BLOCK B2       MODEL: MIXER        HIERARCHY: B2                        TIME =      0.96
      KODE = 1   NO. TEMP ITER =    1     TEMP =  338.097    
      KPHASE =    2 KODE =    1 T =  338.097     P =  100000.     Q =  0.00000    

      UOS BLOCK B1       MODEL: BATCHOP      HIERARCHY: B2                        TIME =      0.96

      UOS BLOCK B1       MODEL: BATCHOP      HIERARCHY: B2                        TIME =      0.96

      Integrating from 0.42000     to 0.43000     by 0.10000E-01 HR

      UOS BLOCK B2       MODEL: MIXER        HIERARCHY: B2                        TIME =      0.96
      KODE = 1   NO. TEMP ITER =    1     TEMP =  338.097    
      KPHASE =    2 KODE =    1 T =  338.097     P =  100000.     Q =  0.00000    

      UOS BLOCK B1       MODEL: BATCHOP      HIERARCHY: B2                        TIME =      0.96

      UOS BLOCK B1       MODEL: BATCHOP      HIERARCHY: B2                        TIME =      0.96

      Integrating from 0.43000     to 0.44000     by 0.10000E-01 HR

      UOS BLOCK B2       MODEL: MIXER        HIERARCHY: B2                        TIME =      0.96
      KODE = 1   NO. TEMP ITER =    1     TEMP =  338.097    
      KPHASE =    2 KODE =    1 T =  338.097     P =  100000.     Q =  0.00000    

      UOS BLOCK B1       MODEL: BATCHOP      HIERARCHY: B2                        TIME =      0.96

      UOS BLOCK B1       MODEL: BATCHOP      HIERARCHY: B2                        TIME =      0.96

      Integrating from 0.44000     to 0.45000     by 0.10000E-01 HR

      UOS BLOCK B2       MODEL: MIXER        HIERARCHY: B2                        TIME =      0.96
      KODE = 1   NO. TEMP ITER =    1     TEMP =  338.097    
      KPHASE =    2 KODE =    1 T =  338.097     P =  100000.     Q =  0.00000    

      UOS BLOCK B1       MODEL: BATCHOP      HIERARCHY: B2                        TIME =      0.96

      UOS BLOCK B1       MODEL: BATCHOP      HIERARCHY: B2                        TIME =      1.01

      Integrating from 0.45000     to 0.46000     by 0.10000E-01 HR

      UOS BLOCK B2       MODEL: MIXER        HIERARCHY: B2                        TIME =      1.04
      KODE = 1   NO. TEMP ITER =    1     TEMP =  338.097    
      KPHASE =    2 KODE =    1 T =  338.097     P =  100000.     Q =  0.00000    

      UOS BLOCK B1       MODEL: BATCHOP      HIERARCHY: B2                        TIME =      1.04

      UOS BLOCK B1       MODEL: BATCHOP      HIERARCHY: B2                        TIME =      1.04

      Integrating from 0.46000     to 0.47000     by 0.10000E-01 HR

      UOS BLOCK B2       MODEL: MIXER        HIERARCHY: B2                        TIME =      1.04
      KODE = 1   NO. TEMP ITER =    1     TEMP =  338.097    
      KPHASE =    2 KODE =    1 T =  338.097     P =  100000.     Q =  0.00000    

      UOS BLOCK B1       MODEL: BATCHOP      HIERARCHY: B2                        TIME =      1.04

      UOS BLOCK B1       MODEL: BATCHOP      HIERARCHY: B2                        TIME =      1.04

      Integrating from 0.47000     to 0.48000     by 0.10000E-01 HR

      UOS BLOCK B2       MODEL: MIXER        HIERARCHY: B2                        TIME =      1.04
      KODE = 1   NO. TEMP ITER =    1     TEMP =  338.097    
      KPHASE =    2 KODE =    1 T =  338.097     P =  100000.     Q =  0.00000    

      UOS BLOCK B1       MODEL: BATCHOP      HIERARCHY: B2                        TIME =      1.04

      UOS BLOCK B1       MODEL: BATCHOP      HIERARCHY: B2                        TIME =      1.04

      Integrating from 0.48000     to 0.49000     by 0.10000E-01 HR

      UOS BLOCK B2       MODEL: MIXER        HIERARCHY: B2                        TIME =      1.04
      KODE = 1   NO. TEMP ITER =    1     TEMP =  338.097    
      KPHASE =    2 KODE =    1 T =  338.097     P =  100000.     Q =  0.00000    

      UOS BLOCK B1       MODEL: BATCHOP      HIERARCHY: B2                        TIME =      1.04

      UOS BLOCK B1       MODEL: BATCHOP      HIERARCHY: B2                        TIME =      1.04

      Integrating from 0.49000     to 0.50000     by 0.10000E-01 HR

      UOS BLOCK B2       MODEL: MIXER        HIERARCHY: B2                        TIME =      1.04
      KODE = 1   NO. TEMP ITER =    1     TEMP =  338.097    
      KPHASE =    2 KODE =    1 T =  338.097     P =  100000.     Q =  0.00000    

      UOS BLOCK B1       MODEL: BATCHOP      HIERARCHY: B2                        TIME =      1.04

      UOS BLOCK B1       MODEL: BATCHOP      HIERARCHY: B2                        TIME =      1.10

      Integrating from 0.50000     to 0.51000     by 0.10000E-01 HR

      UOS BLOCK B2       MODEL: MIXER        HIERARCHY: B2                        TIME =      1.13
      KODE = 1   NO. TEMP ITER =    1     TEMP =  338.097    
      KPHASE =    2 KODE =    1 T =  338.097     P =  100000.     Q =  0.00000    

      UOS BLOCK B1       MODEL: BATCHOP      HIERARCHY: B2                        TIME =      1.13

      UOS BLOCK B1       MODEL: BATCHOP      HIERARCHY: B2                        TIME =      1.13

      Integrating from 0.51000     to 0.52000     by 0.10000E-01 HR

      UOS BLOCK B2       MODEL: MIXER        HIERARCHY: B2                        TIME =      1.13
      KODE = 1   NO. TEMP ITER =    1     TEMP =  338.097    
      KPHASE =    2 KODE =    1 T =  338.097     P =  100000.     Q =  0.00000    

      UOS BLOCK B1       MODEL: BATCHOP      HIERARCHY: B2                        TIME =      1.13

      UOS BLOCK B1       MODEL: BATCHOP      HIERARCHY: B2                        TIME =      1.14

      Integrating from 0.52000     to 0.53000     by 0.10000E-01 HR

      UOS BLOCK B2       MODEL: MIXER        HIERARCHY: B2                        TIME =      1.14
      KODE = 1   NO. TEMP ITER =    1     TEMP =  338.097    
      KPHASE =    2 KODE =    1 T =  338.097     P =  100000.     Q =  0.00000    

      UOS BLOCK B1       MODEL: BATCHOP      HIERARCHY: B2                        TIME =      1.14

      UOS BLOCK B1       MODEL: BATCHOP      HIERARCHY: B2                        TIME =      1.14

      Integrating from 0.53000     to 0.54000     by 0.10000E-01 HR

      UOS BLOCK B2       MODEL: MIXER        HIERARCHY: B2                        TIME =      1.14
      KODE = 1   NO. TEMP ITER =    1     TEMP =  338.097    
      KPHASE =    2 KODE =    1 T =  338.097     P =  100000.     Q =  0.00000    

      UOS BLOCK B1       MODEL: BATCHOP      HIERARCHY: B2                        TIME =      1.14

      UOS BLOCK B1       MODEL: BATCHOP      HIERARCHY: B2                        TIME =      1.14

      Integrating from 0.54000     to 0.55000     by 0.10000E-01 HR

      UOS BLOCK B2       MODEL: MIXER        HIERARCHY: B2                        TIME =      1.14
      KODE = 1   NO. TEMP ITER =    1     TEMP =  338.097    
      KPHASE =    2 KODE =    1 T =  338.097     P =  100000.     Q =  0.00000    

      UOS BLOCK B1       MODEL: BATCHOP      HIERARCHY: B2                        TIME =      1.14

      UOS BLOCK B1       MODEL: BATCHOP      HIERARCHY: B2                        TIME =      1.18

      Integrating from 0.55000     to 0.56000     by 0.10000E-01 HR

      UOS BLOCK B2       MODEL: MIXER        HIERARCHY: B2                        TIME =      1.21
      KODE = 1   NO. TEMP ITER =    1     TEMP =  338.097    
      KPHASE =    2 KODE =    1 T =  338.097     P =  100000.     Q =  0.00000    

      UOS BLOCK B1       MODEL: BATCHOP      HIERARCHY: B2                        TIME =      1.21

      UOS BLOCK B1       MODEL: BATCHOP      HIERARCHY: B2                        TIME =      1.21

      Integrating from 0.56000     to 0.57000     by 0.10000E-01 HR

      UOS BLOCK B2       MODEL: MIXER        HIERARCHY: B2                        TIME =      1.21
      KODE = 1   NO. TEMP ITER =    1     TEMP =  338.097    
      KPHASE =    2 KODE =    1 T =  338.097     P =  100000.     Q =  0.00000    

      UOS BLOCK B1       MODEL: BATCHOP      HIERARCHY: B2                        TIME =      1.21

      UOS BLOCK B1       MODEL: BATCHOP      HIERARCHY: B2                        TIME =      1.21

      Integrating from 0.57000     to 0.58000     by 0.10000E-01 HR

      UOS BLOCK B2       MODEL: MIXER        HIERARCHY: B2                        TIME =      1.21
      KODE = 1   NO. TEMP ITER =    1     TEMP =  338.097    
      KPHASE =    2 KODE =    1 T =  338.097     P =  100000.     Q =  0.00000    

      UOS BLOCK B1       MODEL: BATCHOP      HIERARCHY: B2                        TIME =      1.21

      UOS BLOCK B1       MODEL: BATCHOP      HIERARCHY: B2                        TIME =      1.21

      Integrating from 0.58000     to 0.59000     by 0.10000E-01 HR

      UOS BLOCK B2       MODEL: MIXER        HIERARCHY: B2                        TIME =      1.21
      KODE = 1   NO. TEMP ITER =    1     TEMP =  338.097    
      KPHASE =    2 KODE =    1 T =  338.097     P =  100000.     Q =  0.00000    

      UOS BLOCK B1       MODEL: BATCHOP      HIERARCHY: B2                        TIME =      1.21

      UOS BLOCK B1       MODEL: BATCHOP      HIERARCHY: B2                        TIME =      1.21

      Integrating from 0.59000     to 0.60000     by 0.10000E-01 HR

      UOS BLOCK B2       MODEL: MIXER        HIERARCHY: B2                        TIME =      1.21
      KODE = 1   NO. TEMP ITER =    1     TEMP =  338.097    
      KPHASE =    2 KODE =    1 T =  338.097     P =  100000.     Q =  0.00000    

      UOS BLOCK B1       MODEL: BATCHOP      HIERARCHY: B2                        TIME =      1.21

      UOS BLOCK B1       MODEL: BATCHOP      HIERARCHY: B2                        TIME =      1.25

      Integrating from 0.60000     to 0.61000     by 0.10000E-01 HR

      UOS BLOCK B2       MODEL: MIXER        HIERARCHY: B2                        TIME =      1.28
      KODE = 1   NO. TEMP ITER =    1     TEMP =  338.097    
      KPHASE =    2 KODE =    1 T =  338.097     P =  100000.     Q =  0.00000    

      UOS BLOCK B1       MODEL: BATCHOP      HIERARCHY: B2                        TIME =      1.28

      UOS BLOCK B1       MODEL: BATCHOP      HIERARCHY: B2                        TIME =      1.29

      Integrating from 0.61000     to 0.62000     by 0.10000E-01 HR

      UOS BLOCK B2       MODEL: MIXER        HIERARCHY: B2                        TIME =      1.29
      KODE = 1   NO. TEMP ITER =    1     TEMP =  338.097    
      KPHASE =    2 KODE =    1 T =  338.097     P =  100000.     Q =  0.00000    

      UOS BLOCK B1       MODEL: BATCHOP      HIERARCHY: B2                        TIME =      1.29

      UOS BLOCK B1       MODEL: BATCHOP      HIERARCHY: B2                        TIME =      1.29

      Integrating from 0.62000     to 0.63000     by 0.10000E-01 HR

      UOS BLOCK B2       MODEL: MIXER        HIERARCHY: B2                        TIME =      1.29
      KODE = 1   NO. TEMP ITER =    1     TEMP =  338.097    
      KPHASE =    2 KODE =    1 T =  338.097     P =  100000.     Q =  0.00000    

      UOS BLOCK B1       MODEL: BATCHOP      HIERARCHY: B2                        TIME =      1.29

      UOS BLOCK B1       MODEL: BATCHOP      HIERARCHY: B2                        TIME =      1.29

      Integrating from 0.63000     to 0.64000     by 0.10000E-01 HR

      UOS BLOCK B2       MODEL: MIXER        HIERARCHY: B2                        TIME =      1.29
      KODE = 1   NO. TEMP ITER =    1     TEMP =  338.097    
      KPHASE =    2 KODE =    1 T =  338.097     P =  100000.     Q =  0.00000    

      UOS BLOCK B1       MODEL: BATCHOP      HIERARCHY: B2                        TIME =      1.29

      UOS BLOCK B1       MODEL: BATCHOP      HIERARCHY: B2                        TIME =      1.29

      Integrating from 0.64000     to 0.65000     by 0.10000E-01 HR

      UOS BLOCK B2       MODEL: MIXER        HIERARCHY: B2                        TIME =      1.29
      KODE = 1   NO. TEMP ITER =    1     TEMP =  338.097    
      KPHASE =    2 KODE =    1 T =  338.097     P =  100000.     Q =  0.00000    

      UOS BLOCK B1       MODEL: BATCHOP      HIERARCHY: B2                        TIME =      1.29

      UOS BLOCK B1       MODEL: BATCHOP      HIERARCHY: B2                        TIME =      1.33

      Integrating from 0.65000     to 0.66000     by 0.10000E-01 HR

      UOS BLOCK B2       MODEL: MIXER        HIERARCHY: B2                        TIME =      1.36
      KODE = 1   NO. TEMP ITER =    1     TEMP =  338.097    
      KPHASE =    2 KODE =    1 T =  338.097     P =  100000.     Q =  0.00000    

      UOS BLOCK B1       MODEL: BATCHOP      HIERARCHY: B2                        TIME =      1.36

      UOS BLOCK B1       MODEL: BATCHOP      HIERARCHY: B2                        TIME =      1.36

      Integrating from 0.66000     to 0.67000     by 0.10000E-01 HR

      UOS BLOCK B2       MODEL: MIXER        HIERARCHY: B2                        TIME =      1.36
      KODE = 1   NO. TEMP ITER =    1     TEMP =  338.097    
      KPHASE =    2 KODE =    1 T =  338.097     P =  100000.     Q =  0.00000    

      UOS BLOCK B1       MODEL: BATCHOP      HIERARCHY: B2                        TIME =      1.36

      UOS BLOCK B1       MODEL: BATCHOP      HIERARCHY: B2                        TIME =      1.36

      Integrating from 0.67000     to 0.68000     by 0.10000E-01 HR

      UOS BLOCK B2       MODEL: MIXER        HIERARCHY: B2                        TIME =      1.36
      KODE = 1   NO. TEMP ITER =    1     TEMP =  338.097    
      KPHASE =    2 KODE =    1 T =  338.097     P =  100000.     Q =  0.00000    

      UOS BLOCK B1       MODEL: BATCHOP      HIERARCHY: B2                        TIME =      1.36

      UOS BLOCK B1       MODEL: BATCHOP      HIERARCHY: B2                        TIME =      1.36

      Integrating from 0.68000     to 0.69000     by 0.10000E-01 HR

      UOS BLOCK B2       MODEL: MIXER        HIERARCHY: B2                        TIME =      1.36
      KODE = 1   NO. TEMP ITER =    1     TEMP =  338.097    
      KPHASE =    2 KODE =    1 T =  338.097     P =  100000.     Q =  0.00000    

      UOS BLOCK B1       MODEL: BATCHOP      HIERARCHY: B2                        TIME =      1.36

      UOS BLOCK B1       MODEL: BATCHOP      HIERARCHY: B2                        TIME =      1.37

      Integrating from 0.69000     to 0.70000     by 0.10000E-01 HR

      UOS BLOCK B2       MODEL: MIXER        HIERARCHY: B2                        TIME =      1.37
      KODE = 1   NO. TEMP ITER =    1     TEMP =  338.097    
      KPHASE =    2 KODE =    1 T =  338.097     P =  100000.     Q =  0.00000    

      UOS BLOCK B1       MODEL: BATCHOP      HIERARCHY: B2                        TIME =      1.37

      UOS BLOCK B1       MODEL: BATCHOP      HIERARCHY: B2                        TIME =      1.42

      Integrating from 0.70000     to 0.71000     by 0.10000E-01 HR

      UOS BLOCK B2       MODEL: MIXER        HIERARCHY: B2                        TIME =      1.45
      KODE = 1   NO. TEMP ITER =    1     TEMP =  338.097    
      KPHASE =    2 KODE =    1 T =  338.097     P =  100000.     Q =  0.00000    

      UOS BLOCK B1       MODEL: BATCHOP      HIERARCHY: B2                        TIME =      1.45

      UOS BLOCK B1       MODEL: BATCHOP      HIERARCHY: B2                        TIME =      1.45

      Integrating from 0.71000     to 0.72000     by 0.10000E-01 HR

      UOS BLOCK B2       MODEL: MIXER        HIERARCHY: B2                        TIME =      1.45
      KODE = 1   NO. TEMP ITER =    1     TEMP =  338.097    
      KPHASE =    2 KODE =    1 T =  338.097     P =  100000.     Q =  0.00000    

      UOS BLOCK B1       MODEL: BATCHOP      HIERARCHY: B2                        TIME =      1.45

      UOS BLOCK B1       MODEL: BATCHOP      HIERARCHY: B2                        TIME =      1.46

      Integrating from 0.72000     to 0.73000     by 0.10000E-01 HR

      UOS BLOCK B2       MODEL: MIXER        HIERARCHY: B2                        TIME =      1.46
      KODE = 1   NO. TEMP ITER =    1     TEMP =  338.097    
      KPHASE =    2 KODE =    1 T =  338.097     P =  100000.     Q =  0.00000    

      UOS BLOCK B1       MODEL: BATCHOP      HIERARCHY: B2                        TIME =      1.46

      UOS BLOCK B1       MODEL: BATCHOP      HIERARCHY: B2                        TIME =      1.46

      Integrating from 0.73000     to 0.74000     by 0.10000E-01 HR

      UOS BLOCK B2       MODEL: MIXER        HIERARCHY: B2                        TIME =      1.46
      KODE = 1   NO. TEMP ITER =    1     TEMP =  338.097    
      KPHASE =    2 KODE =    1 T =  338.097     P =  100000.     Q =  0.00000    

      UOS BLOCK B1       MODEL: BATCHOP      HIERARCHY: B2                        TIME =      1.46

      UOS BLOCK B1       MODEL: BATCHOP      HIERARCHY: B2                        TIME =      1.46

      Integrating from 0.74000     to 0.75000     by 0.10000E-01 HR

      UOS BLOCK B2       MODEL: MIXER        HIERARCHY: B2                        TIME =      1.46
      KODE = 1   NO. TEMP ITER =    1     TEMP =  338.097    
      KPHASE =    2 KODE =    1 T =  338.097     P =  100000.     Q =  0.00000    

      UOS BLOCK B1       MODEL: BATCHOP      HIERARCHY: B2                        TIME =      1.46

      UOS BLOCK B1       MODEL: BATCHOP      HIERARCHY: B2                        TIME =      1.50

      Integrating from 0.75000     to 0.76000     by 0.10000E-01 HR

      UOS BLOCK B2       MODEL: MIXER        HIERARCHY: B2                        TIME =      1.53
      KODE = 1   NO. TEMP ITER =    1     TEMP =  338.097    
      KPHASE =    2 KODE =    1 T =  338.097     P =  100000.     Q =  0.00000    

      UOS BLOCK B1       MODEL: BATCHOP      HIERARCHY: B2                        TIME =      1.53

      UOS BLOCK B1       MODEL: BATCHOP      HIERARCHY: B2                        TIME =      1.53

      Integrating from 0.76000     to 0.77000     by 0.10000E-01 HR

      UOS BLOCK B2       MODEL: MIXER        HIERARCHY: B2                        TIME =      1.53
      KODE = 1   NO. TEMP ITER =    1     TEMP =  338.097    
      KPHASE =    2 KODE =    1 T =  338.097     P =  100000.     Q =  0.00000    

      UOS BLOCK B1       MODEL: BATCHOP      HIERARCHY: B2                        TIME =      1.53

      UOS BLOCK B1       MODEL: BATCHOP      HIERARCHY: B2                        TIME =      1.53

      Integrating from 0.77000     to 0.78000     by 0.10000E-01 HR

      UOS BLOCK B2       MODEL: MIXER        HIERARCHY: B2                        TIME =      1.53
      KODE = 1   NO. TEMP ITER =    1     TEMP =  338.097    
      KPHASE =    2 KODE =    1 T =  338.097     P =  100000.     Q =  0.00000    

      UOS BLOCK B1       MODEL: BATCHOP      HIERARCHY: B2                        TIME =      1.53

      UOS BLOCK B1       MODEL: BATCHOP      HIERARCHY: B2                        TIME =      1.53

      Integrating from 0.78000     to 0.79000     by 0.10000E-01 HR

      UOS BLOCK B2       MODEL: MIXER        HIERARCHY: B2                        TIME =      1.53
      KODE = 1   NO. TEMP ITER =    1     TEMP =  338.097    
      KPHASE =    2 KODE =    1 T =  338.097     P =  100000.     Q =  0.00000    

      UOS BLOCK B1       MODEL: BATCHOP      HIERARCHY: B2                        TIME =      1.53

      UOS BLOCK B1       MODEL: BATCHOP      HIERARCHY: B2                        TIME =      1.53

      Integrating from 0.79000     to 0.80000     by 0.10000E-01 HR

      UOS BLOCK B2       MODEL: MIXER        HIERARCHY: B2                        TIME =      1.53
      KODE = 1   NO. TEMP ITER =    1     TEMP =  338.097    
      KPHASE =    2 KODE =    1 T =  338.097     P =  100000.     Q =  0.00000    

      UOS BLOCK B1       MODEL: BATCHOP      HIERARCHY: B2                        TIME =      1.53

      UOS BLOCK B1       MODEL: BATCHOP      HIERARCHY: B2                        TIME =      1.57

      Integrating from 0.80000     to 0.81000     by 0.10000E-01 HR

      UOS BLOCK B2       MODEL: MIXER        HIERARCHY: B2                        TIME =      1.61
      KODE = 1   NO. TEMP ITER =    1     TEMP =  338.097    
[...]
      KODE = 1  NTRIAL =   5  T = 365.6639  P =  100000.      V = 0.286156      Q =  0.00000    
      KODE = 1  NTRIAL =   5  T = 364.4385  P =  100000.      V = 0.269152      Q =  0.00000    
      KODE = 1  NTRIAL =   5  T = 363.2819  P =  100000.      V = 0.251518      Q =  0.00000    
      KODE = 1  NTRIAL =   5  T = 362.1914  P =  100000.      V = 0.233282      Q =  0.00000    
      KODE = 1  NTRIAL =   5  T = 361.1640  P =  100000.      V = 0.214475      Q =  0.00000    
      KODE = 1  NTRIAL =   5  T = 360.1966  P =  100000.      V = 0.195125      Q =  0.00000    
      KODE = 1  NTRIAL =   5  T = 359.2859  P =  100000.      V = 0.175265      Q =  0.00000    
      KODE = 1  NTRIAL =   5  T = 358.4287  P =  100000.      V = 0.154923      Q =  0.00000    
      KODE = 1  NTRIAL =   5  T = 357.6220  P =  100000.      V = 0.134130      Q =  0.00000    
      KODE = 1  NTRIAL =   5  T = 356.8626  P =  100000.      V = 0.112915      Q =  0.00000    
      KODE = 1  NTRIAL =   5  T = 356.1475  P =  100000.      V = 9.130534E-02  Q =  0.00000    
      KODE = 1  NTRIAL =   5  T = 355.4739  P =  100000.      V = 6.932704E-02  Q =  0.00000    
      KODE = 1  NTRIAL =   5  T = 354.8390  P =  100000.      V = 4.700536E-02  Q =  0.00000    
      KODE = 1  NTRIAL =   5  T = 354.2403  P =  100000.      V = 2.436383E-02  Q =  0.00000    

      BEGIN HOT-TQCURVE  INLET   
      KODE = 1  NTRIAL =   7  T = 617.6037  P =  100000.      V = 6.377954E-06  Q =  0.00000    
      NO. TEMP ITER =    4     TEMP =  615.041    
      KODE = 1  NTRIAL =   2  T = 615.0415  P =  100000.      V =  0.00000      Q =  0.00000    
      KODE = 3  NTRIAL =   6  T = 617.6036  P =  100000.      V =  0.00000      Q = -42.6193    
      NO. TEMP ITER =    4     TEMP =  615.041    
      KODE = 1  NTRIAL =   2  T = 615.0415  P =  100000.      V =  0.00000      Q =  0.00000    
      NO. TEMP ITER =    5     TEMP =  612.468    
      KODE = 1  NTRIAL =   2  T = 612.4682  P =  100000.      V =  0.00000      Q =  0.00000    
      NO. TEMP ITER =    5     TEMP =  609.884    
      KODE = 1  NTRIAL =   2  T = 609.8844  P =  100000.      V =  0.00000      Q =  0.00000    
      NO. TEMP ITER =    5     TEMP =  607.290    
      KODE = 1  NTRIAL =   2  T = 607.2901  P =  100000.      V =  0.00000      Q =  0.00000    
      NO. TEMP ITER =    5     TEMP =  604.685    
      KODE = 1  NTRIAL =   2  T = 604.6854  P =  100000.      V =  0.00000      Q =  0.00000    
      NO. TEMP ITER =    5     TEMP =  602.070    
      KODE = 1  NTRIAL =   2  T = 602.0703  P =  100000.      V =  0.00000      Q =  0.00000    
      NO. TEMP ITER =    5     TEMP =  599.445    
      KODE = 1  NTRIAL =   2  T = 599.4447  P =  100000.      V =  0.00000      Q =  0.00000    
      NO. TEMP ITER =    5     TEMP =  596.809    
      KODE = 1  NTRIAL =   2  T = 596.8088  P =  100000.      V =  0.00000      Q =  0.00000    
      NO. TEMP ITER =    5     TEMP =  594.163    
      KODE = 1  NTRIAL =   2  T = 594.1626  P =  100000.      V =  0.00000      Q =  0.00000    
      NO. TEMP ITER =    5     TEMP =  591.506    
      KODE = 1  NTRIAL =   2  T = 591.5060  P =  100000.      V =  0.00000      Q =  0.00000    
      NO. TEMP ITER =    4     TEMP =  588.839    
      KODE = 1  NTRIAL =   2  T = 588.8391  P =  100000.      V =  0.00000      Q =  0.00000    
      NO. TEMP ITER =    4     TEMP =  586.162    
      KODE = 1  NTRIAL =   2  T = 586.1619  P =  100000.      V =  0.00000      Q =  0.00000    
      NO. TEMP ITER =    5     TEMP =  583.474    
      KODE = 1  NTRIAL =   2  T = 583.4743  P =  100000.      V =  0.00000      Q =  0.00000    
      NO. TEMP ITER =    5     TEMP =  580.776    
      KODE = 1  NTRIAL =   2  T = 580.7765  P =  100000.      V =  0.00000      Q =  0.00000    
      NO. TEMP ITER =    5     TEMP =  578.068    
      KODE = 1  NTRIAL =   2  T = 578.0684  P =  100000.      V =  0.00000      Q =  0.00000    
      NO. TEMP ITER =    5     TEMP =  575.350    
      KODE = 1  NTRIAL =   2  T = 575.3499  P =  100000.      V =  0.00000      Q =  0.00000    
      NO. TEMP ITER =    5     TEMP =  572.621    
      KODE = 1  NTRIAL =   2  T = 572.6212  P =  100000.      V =  0.00000      Q =  0.00000    
      NO. TEMP ITER =    5     TEMP =  569.882    
      KODE = 1  NTRIAL =   2  T = 569.8821  P =  100000.      V =  0.00000      Q =  0.00000    
      NO. TEMP ITER =    5     TEMP =  567.133    
      KODE = 1  NTRIAL =   2  T = 567.1327  P =  100000.      V =  0.00000      Q =  0.00000    
      NO. TEMP ITER =    5     TEMP =  564.373    
      KODE = 1  NTRIAL =   2  T = 564.3730  P =  100000.      V =  0.00000      Q =  0.00000    
      NO. TEMP ITER =    5     TEMP =  561.603    
      KODE = 1  NTRIAL =   2  T = 561.6029  P =  100000.      V =  0.00000      Q =  0.00000    

      BEGIN COLD-TQCURVE INLET   
      KODE = 1  NTRIAL =  14  T = 376.3234  P =  100000.      V = 0.385812      Q =  0.00000    

      BEGIN HOT-TQCURVE  INLET   
      END HEATX TQ-CURVE CALCULATIONS FOR BLOCK HEATX1  

      GENERATING RESULTS FOR UOS BLOCK HEATX2   MODEL: HEATX                      TIME =     21.70

  **  ERROR WHILE GENERATING RESULTS FOR UNIT OPERATIONS BLOCK: "HEATX2"        
      (MODEL: "HEATX")                                         (UHE02I.12)      
      SINGLE PHASE TEMPERATURE CALCULATIONS FAILED IN  4  ITERATIONS. FINAL     
      TEMPERATURE IS  10.0000  FINAL ENTHALPY IS  -3.9697D+08  SPECIFIED        
      ENTHALPY IS  -4.0711D+08   COLD FEED FLASH FAILED.                        

  *   WARNING WHILE GENERATING RESULTS FOR UNIT OPERATIONS BLOCK: "HEATX2"      
      (MODEL: "HEATX")                                         (UHE02I.10)      
      CALCULATED FEED TEMPERATURE FOR THE COLD SIDE (1.0000000D+01)             
      IS INCONSISTENT WITH ITS INLET STREAM VALUE (2.9815000D+02)               
      PROBABLE CAUSE: LOOSE FLASH TOLERANCE, OR UPSTREAM BLOCK WITH DIFFERENT   
      PHASE SPECIFICATIONS OR PROPERTY METHOD. THE CALCULATED VALUE WILL BE     
      USED IN CALCULATIONS.                                                     
      SPECIFICATION: COLD OUTLET TEMP      338.15    
      FLOW TYPE:     COUNTERCURRENT  
      HOT:  TIN=  513.29  PIN=0.10000E+06   TOUT=   75.03  POUT=0.10000E+06
      COLD: TIN=   10.00  PIN=0.10000E+06   TOUT=  338.15  POUT=0.10000E+06
      AREA= 151.79           DUTY=0.14002E+08       FT=1.00000

      BEGIN HEATX TQ-CURVE CALCULATIONS FOR BLOCK HEATX2  

      BEGIN COLD-TQCURVE INLET   
      KODE = 1   NO. TEMP ITER =    6     TEMP =  338.150    
      KPHASE =    2 KODE =    1 T =  338.150     P =  100000.     Q =  0.00000    
      KODE = 1   NO. TEMP ITER =    5     TEMP =  315.860    
      KPHASE =    2 KODE =    1 T =  315.860     P =  100000.     Q =  0.00000    
      KODE = 1   NO. TEMP ITER =    5     TEMP =  292.109    
      KPHASE =    2 KODE =    1 T =  292.109     P =  100000.     Q =  0.00000    
      KODE = 1   NO. TEMP ITER =    5     TEMP =  267.406    
      KPHASE =    2 KODE =    1 T =  267.406     P =  100000.     Q =  0.00000    
      KODE = 1   NO. TEMP ITER =    5     TEMP =  242.490    
      KPHASE =    2 KODE =    1 T =  242.490     P =  100000.     Q =  0.00000    
      KODE = 1   NO. TEMP ITER =    5     TEMP =  218.133    
      KPHASE =    2 KODE =    1 T =  218.133     P =  100000.     Q =  0.00000    
      KODE = 1   NO. TEMP ITER =    5     TEMP =  194.898    
      KPHASE =    2 KODE =    1 T =  194.898     P =  100000.     Q =  0.00000    
      KODE = 1   NO. TEMP ITER =    5     TEMP =  173.035    
      KPHASE =    2 KODE =    1 T =  173.035     P =  100000.     Q =  0.00000    
      KODE = 1   NO. TEMP ITER =    5     TEMP =  152.539    
      KPHASE =    2 KODE =    1 T =  152.539     P =  100000.     Q =  0.00000    
      KODE = 1   NO. TEMP ITER =    5     TEMP =  133.256    
      KPHASE =    2 KODE =    1 T =  133.256     P =  100000.     Q =  0.00000    
      KODE = 1   NO. TEMP ITER =    5     TEMP =  114.986    
      KPHASE =    2 KODE =    1 T =  114.986     P =  100000.     Q =  0.00000    
      KODE = 1   NO. TEMP ITER =    5     TEMP =  97.5329    
      KPHASE =    2 KODE =    1 T =  97.5329     P =  100000.     Q =  0.00000    
      KODE = 1   NO. TEMP ITER =    5     TEMP =  80.7412    
      KPHASE =    2 KODE =    1 T =  80.7412     P =  100000.     Q =  0.00000    
      KODE = 1   NO. TEMP ITER =    5     TEMP =  64.5137    
      KPHASE =    2 KODE =    1 T =  64.5137     P =  100000.     Q =  0.00000    
      KODE = 1   NO. TEMP ITER =    5     TEMP =  48.8349    
      KPHASE =    2 KODE =    1 T =  48.8349     P =  100000.     Q =  0.00000    
      KODE = 1   NO. TEMP ITER =    5     TEMP =  33.8118    
      KPHASE =    2 KODE =    1 T =  33.8118     P =  100000.     Q =  0.00000    
      KODE = 1   NO. TEMP ITER =    6     TEMP =  19.7695    
      KPHASE =    2 KODE =    1 T =  19.7695     P =  100000.     Q =  0.00000    
      KODE = 1   NO. TEMP ITER =    2     TEMP =  10.0000    
      KPHASE =    2 KODE =    1 T =  10.0000     P =  100000.     Q =  0.00000    

  **  ERROR WHILE GENERATING RESULTS FOR UNIT OPERATIONS BLOCK: "HEATX2"        
      (MODEL: "HEATX")    (WHILE GENERATING COLD-TQCURVE )     (TGSUPP.1)       
      SINGLE PHASE TEMPERATURE CALCULATIONS FAILED IN  2  ITERATIONS. FINAL     
      TEMPERATURE IS  10.0000  FINAL ENTHALPY IS  -3.9697D+08  SPECIFIED        
      ENTHALPY IS  -3.9750D+08   PROPERTIES WILL NOT BE CALCULATED DUE TO FLASH 
      FAILURE.                                                                  
      KODE = 1   NO. TEMP ITER =    3     TEMP =  10.0000    
      KPHASE =    2 KODE =    1 T =  10.0000     P =  100000.     Q =  0.00000    

  **  ERROR WHILE GENERATING RESULTS FOR UNIT OPERATIONS BLOCK: "HEATX2"        
      (MODEL: "HEATX")    (WHILE GENERATING COLD-TQCURVE )     (TGSUPP.1)       
      SINGLE PHASE TEMPERATURE CALCULATIONS FAILED IN  3  ITERATIONS. FINAL     
      TEMPERATURE IS  10.0000  FINAL ENTHALPY IS  -3.9697D+08  SPECIFIED        
      ENTHALPY IS  -3.9990D+08   PROPERTIES WILL NOT BE CALCULATED DUE TO FLASH 
      FAILURE.                                                                  
      KODE = 1   NO. TEMP ITER =    3     TEMP =  10.0000    
      KPHASE =    2 KODE =    1 T =  10.0000     P =  100000.     Q =  0.00000    

  **  ERROR WHILE GENERATING RESULTS FOR UNIT OPERATIONS BLOCK: "HEATX2"        
      (MODEL: "HEATX")    (WHILE GENERATING COLD-TQCURVE )     (TGSUPP.1)       
      SINGLE PHASE TEMPERATURE CALCULATIONS FAILED IN  3  ITERATIONS. FINAL     
      TEMPERATURE IS  10.0000  FINAL ENTHALPY IS  -3.9697D+08  SPECIFIED        
      ENTHALPY IS  -4.0230D+08   PROPERTIES WILL NOT BE CALCULATED DUE TO FLASH 
      FAILURE.                                                                  
      KODE = 1   NO. TEMP ITER =    3     TEMP =  10.0000    
      KPHASE =    2 KODE =    1 T =  10.0000     P =  100000.     Q =  0.00000    

  **  ERROR WHILE GENERATING RESULTS FOR UNIT OPERATIONS BLOCK: "HEATX2"        
      (MODEL: "HEATX")    (WHILE GENERATING COLD-TQCURVE )     (TGSUPP.1)       
      SINGLE PHASE TEMPERATURE CALCULATIONS FAILED IN  3  ITERATIONS. FINAL     
      TEMPERATURE IS  10.0000  FINAL ENTHALPY IS  -3.9697D+08  SPECIFIED        
      ENTHALPY IS  -4.0471D+08   PROPERTIES WILL NOT BE CALCULATED DUE TO FLASH 
      FAILURE.                                                                  
      KODE = 1   NO. TEMP ITER =    3     TEMP =  10.0000    
      KPHASE =    2 KODE =    1 T =  10.0000     P =  100000.     Q =  0.00000    

  **  ERROR WHILE GENERATING RESULTS FOR UNIT OPERATIONS BLOCK: "HEATX2"        
      (MODEL: "HEATX")    (WHILE GENERATING COLD-TQCURVE )     (TGSUPP.1)       
      SINGLE PHASE TEMPERATURE CALCULATIONS FAILED IN  3  ITERATIONS. FINAL     
      TEMPERATURE IS  10.0000  FINAL ENTHALPY IS  -3.9697D+08  SPECIFIED        
      ENTHALPY IS  -4.0711D+08   PROPERTIES WILL NOT BE CALCULATED DUE TO FLASH 
      FAILURE.                                                                  

      BEGIN HOT-TQCURVE  INLET   
      NO. TEMP ITER =    5     TEMP =  513.286    
      KODE = 1  NTRIAL =   4  T = 513.2864  P =  100000.      V =  1.00000      Q =  0.00000    
      KODE = 1  NTRIAL =  11  T = 480.0014  P =  100000.      V = 0.983455      Q =  0.00000    
      KODE = 3  NTRIAL =  16  T = 497.8321  P =  100000.      V =  1.00000      Q = -209317.    
      KODE = 1  NTRIAL =  11  T = 480.0014  P =  100000.      V = 0.983455      Q =  0.00000    
      KODE = 1  NTRIAL =   6  T = 442.3627  P =  100000.      V = 0.969887      Q =  0.00000    
      KODE = 1  NTRIAL =   8  T = 393.0510  P =  100000.      V = 0.962561      Q =  0.00000    
      KODE = 1  NTRIAL =  12  T = 351.7470  P =  100000.      V = 0.927365      Q =  0.00000    
      KODE = 1  NTRIAL =   7  T = 341.2041  P =  100000.      V = 0.832994      Q =  0.00000    
      KODE = 1  NTRIAL =   5  T = 339.0346  P =  100000.      V = 0.726239      Q =  0.00000    
      KODE = 1  NTRIAL =   5  T = 338.3541  P =  100000.      V = 0.618274      Q =  0.00000    
      KODE = 1  NTRIAL =   5  T = 338.0695  P =  100000.      V = 0.510411      Q =  0.00000    
      KODE = 1  NTRIAL =   5  T = 337.9234  P =  100000.      V = 0.402801      Q =  0.00000    
      KODE = 1  NTRIAL =   5  T = 337.8359  P =  100000.      V = 0.295419      Q =  0.00000    
      KODE = 1  NTRIAL =   5  T = 337.7769  P =  100000.      V = 0.188220      Q =  0.00000    
      KODE = 1  NTRIAL =   5  T = 337.7335  P =  100000.      V = 8.116274E-02  Q =  0.00000    
      KODE = 1  NTRIAL =   7  T = 329.3008  P =  100000.      V = 2.511391E-08  Q =  0.00000    

  **  ERROR WHILE GENERATING RESULTS FOR UNIT OPERATIONS BLOCK: "HEATX2"        
      (MODEL: "HEATX")    (WHILE GENERATING HOT-TQCURVE )      (TGSUPP.2)       
      FLASH RESULTS ARE WITHIN TOLERANCE, BUT MAY BE UNSATISFACTORY BECAUSE     
      EXTRAPOLATED EOS VAPOR VOLUME ROOT WAS USED FOR PROPERTY CALCULATIONS     
      (T= 329.3008 K, P= 1.0000D+05 Pa). CALCULATED PROPERTIES MAY BE           
      UNRELIABLE DUE TO FLASH PROBLEMS.                                         
      KODE = 1  NTRIAL =   6  T = 293.2424  P =  100000.      V = 1.948731E-08  Q =  0.00000    

  **  ERROR WHILE GENERATING RESULTS FOR UNIT OPERATIONS BLOCK: "HEATX2"        
      (MODEL: "HEATX")    (WHILE GENERATING HOT-TQCURVE )      (TGSUPP.2)       
      FLASH RESULTS ARE WITHIN TOLERANCE, BUT MAY BE UNSATISFACTORY BECAUSE     
      EXTRAPOLATED EOS VAPOR VOLUME ROOT WAS USED FOR PROPERTY CALCULATIONS     
      (T= 293.2424 K, P= 1.0000D+05 Pa). CALCULATED PROPERTIES MAY BE           
      UNRELIABLE DUE TO FLASH PROBLEMS.                                         
      KODE = 1  NTRIAL =   6  T = 255.9757  P =  100000.      V = 1.866725E-08  Q =  0.00000    

  **  ERROR WHILE GENERATING RESULTS FOR UNIT OPERATIONS BLOCK: "HEATX2"        
      (MODEL: "HEATX")    (WHILE GENERATING HOT-TQCURVE )      (TGSUPP.2)       
      FLASH RESULTS ARE WITHIN TOLERANCE, BUT MAY BE UNSATISFACTORY BECAUSE     
      EXTRAPOLATED EOS VAPOR VOLUME ROOT WAS USED FOR PROPERTY CALCULATIONS     
      (T= 255.9757 K, P= 1.0000D+05 Pa). CALCULATED PROPERTIES MAY BE           
      UNRELIABLE DUE TO FLASH PROBLEMS.                                         
      KODE = 1  NTRIAL =   6  T = 218.7649  P =  100000.      V = 1.858887E-08  Q =  0.00000    

  **  ERROR WHILE GENERATING RESULTS FOR UNIT OPERATIONS BLOCK: "HEATX2"        
      (MODEL: "HEATX")    (WHILE GENERATING HOT-TQCURVE )      (TGSUPP.2)       
      FLASH RESULTS ARE WITHIN TOLERANCE, BUT MAY BE UNSATISFACTORY BECAUSE     
      EXTRAPOLATED EOS VAPOR VOLUME ROOT WAS USED FOR PROPERTY CALCULATIONS     
      (T= 218.7649 K, P= 1.0000D+05 Pa). CALCULATED PROPERTIES MAY BE           
      UNRELIABLE DUE TO FLASH PROBLEMS.                                         
      KODE = 1  NTRIAL =   6  T = 183.0513  P =  100000.      V = 1.858591E-08  Q =  0.00000    

  **  ERROR WHILE GENERATING RESULTS FOR UNIT OPERATIONS BLOCK: "HEATX2"        
      (MODEL: "HEATX")    (WHILE GENERATING HOT-TQCURVE )      (TGSUPP.2)       
      FLASH RESULTS ARE WITHIN TOLERANCE, BUT MAY BE UNSATISFACTORY BECAUSE     
      EXTRAPOLATED EOS VAPOR VOLUME ROOT WAS USED FOR PROPERTY CALCULATIONS     
      (T= 183.0513 K, P= 1.0000D+05 Pa). CALCULATED PROPERTIES MAY BE           
      UNRELIABLE DUE TO FLASH PROBLEMS.                                         
      KODE = 1  NTRIAL =  13  T = 150.1085  P =  100000.      V = 1.858588E-08  Q =  0.00000    

  **  ERROR WHILE GENERATING RESULTS FOR UNIT OPERATIONS BLOCK: "HEATX2"        
      (MODEL: "HEATX")    (WHILE GENERATING HOT-TQCURVE )      (TGSUPP.2)       
      FLASH RESULTS ARE WITHIN TOLERANCE, BUT MAY BE UNSATISFACTORY BECAUSE     
      EXTRAPOLATED EOS VAPOR VOLUME ROOT WAS USED FOR PROPERTY CALCULATIONS     
      (T= 150.1085 K, P= 1.0000D+05 Pa). CALCULATED PROPERTIES MAY BE           
      UNRELIABLE DUE TO FLASH PROBLEMS.                                         
      KODE = 1  NTRIAL =  28  T = 120.8240  P =  100000.      V = 1.858588E-08  Q =  0.00000    

  **  ERROR WHILE GENERATING RESULTS FOR UNIT OPERATIONS BLOCK: "HEATX2"        
      (MODEL: "HEATX")    (WHILE GENERATING HOT-TQCURVE )      (TGSUPP.2)       
      FLASH RESULTS ARE WITHIN TOLERANCE, BUT MAY BE UNSATISFACTORY BECAUSE     
      EXTRAPOLATED EOS VAPOR VOLUME ROOT WAS USED FOR PROPERTY CALCULATIONS     
      (T= 120.8240 K, P= 1.0000D+05 Pa). CALCULATED PROPERTIES MAY BE           
      UNRELIABLE DUE TO FLASH PROBLEMS.                                         
      KODE = 1  NTRIAL =  10  T =  95.7220  P =  100000.      V = 1.858512E-08  Q =  0.00000    

  **  ERROR WHILE GENERATING RESULTS FOR UNIT OPERATIONS BLOCK: "HEATX2"        
      (MODEL: "HEATX")    (WHILE GENERATING HOT-TQCURVE )      (TGSUPP.2)       
      FLASH RESULTS ARE WITHIN TOLERANCE, BUT MAY BE UNSATISFACTORY BECAUSE     
      EXTRAPOLATED EOS VAPOR VOLUME ROOT WAS USED FOR PROPERTY CALCULATIONS     
      (T= 95.7220 K, P= 1.0000D+05 Pa). CALCULATED PROPERTIES MAY BE            
      UNRELIABLE DUE TO FLASH PROBLEMS.                                         
      NO. TEMP ITER =    5     TEMP =  75.0312    
      KODE = 1  NTRIAL =   6  T =  75.0315  P =  100000.      V = 1.858588E-08  Q =  0.00000    

      BEGIN COLD-TQCURVE INLET   
      KODE = 1   NO. TEMP ITER =    6     TEMP =  331.329    
      KPHASE =    2 KODE =    1 T =  331.329     P =  100000.     Q =  0.00000    

      BEGIN HOT-TQCURVE  INLET   
      END HEATX TQ-CURVE CALCULATIONS FOR BLOCK HEATX2  

  *   WARNING WHILE GENERATING RESULTS FOR UNIT OPERATIONS BLOCK: "HEATX2"      
      (MODEL: "HEATX")                                         (HXTQCRV.1)      
      TEMPERATURE CROSS DETECTED IN TQ-CURVE INLET                              
      STREAM CATOUT WILL BE FLASHED FOR PROPERTY CALCULATIONS.
      KODE = 1   NO. TEMP ITER =    1     TEMP =  338.151    
      KPHASE =    3 KODE =    1 T =  338.151     P =  100000.     Q =  0.00000    
      STREAM LAOOUT WILL BE FLASHED FOR PROPERTY CALCULATIONS.
      KODE = 1   NO. TEMP ITER =    3     TEMP =  438.866    
      KPHASE =    3 KODE =    1 T =  438.866     P =  100000.     Q =  0.00000    

      BEGIN HEATX TQ-CURVE REPORT FOR BLOCK HEATX2  

      BEGIN COLD-TQCURVE INLET   

      BEGIN HOT-TQCURVE  INLET   
      END HEATX TQ-CURVE REPORT FOR BLOCK HEATX2  

RUN SAVED



 *** SUMMARY OF ERRORS ***

                  PHYSICAL
                  PROPERTY  SYSTEM  SIMULATION
 TERMINAL ERRORS      0        0         0
   SEVERE ERRORS      0        0         0
          ERRORS      0        0        15
        WARNINGS     47        0         8
