
 + + + + + + + + + + + + + + + + + + + + + + + + + + + + + + + + + + + + + + + +
 + + + + + + + + + + + + + + + + + + + + + + + + + + + + + + + + + + + + + + + +
 + +                                                                         + +
 + +                      ASPEN PLUS CALCULATION HISTORY                     + +
 + +                                                                         + +
 + + + + + + + + + + + + + + + + + + + + + + + + + + + + + + + + + + + + + + + +
 + + + + + + + + + + + + + + + + + + + + + + + + + + + + + + + + + + + + + + + +

 ASPEN PLUS IS A TRADEMARK OF           HOTLINE:
 ASPEN TECHNOLOGY, INC.                 U.S.A. 888/996-7100
 781/221-6400                           EUROPE (44) 1189-226555

 PLATFORM: WINDOWS                                       MARCH 19, 2020      
 VERSION: 36.0   Build 249                               THURSDAY    
 INSTALLATION:                                           5:26:51 P.M.        

 THIS COPY OF ASPEN PLUS LICENSED TO RENSSELAER POLYTECHNIC I        


      ASPEN PLUS (R) IS A PROPRIETARY PRODUCT OF ASPEN TECHNOLOGY, INC.
      (ASPENTECH), AND MAY BE USED ONLY UNDER AGREEMENT WITH ASPENTECH.
      RESTRICTED RIGHTS LEGEND:  USE, REPRODUCTION, OR DISCLOSURE BY THE
      U.S. GOVERNMENT IS SUBJECT TO RESTRICTIONS SET FORTH IN 
      (i) FAR 52.227-14, Alt. III, (ii) FAR 52.227-19, (iii) DFARS 
      252.227-7013(c)(1)(ii), or (iv) THE ACCOMPANYING LICENSE AGREEMENT,
      AS APPLICABLE. FOR PURPOSES OF THE FAR, THIS SOFTWARE SHALL BE DEEMED
      TO BE "UNPUBLISHED" AND LICENSED WITH DISCLOSURE PROHIBITIONS.
      CONTRACTOR/SUBCONTRACTOR: ASPEN TECHNOLOGY, INC. 20 CROSBY DRIVE,
      BEDFORD, MA 01730.
 *** INPUT SUMMARY ***

 >>CURRENT RUN

   ORIGINAL RUN                           MARCH 19, 2020      
   5:26:51 P.M.                           THURSDAY    
   INPUT FILE: _4042smv.inm
   RUN ID : _4042smv
          1    ;
          2    ;Input file created by Aspen Plus Rel. 36.0 at 17:26:48 Thu Mar 19, 2020
          3    ;Directory C:\Users\benjam2\Dropbox\spring 2020\Capstone\biocap2020\Aspen\Full Draft  Runid FULL DRAFT
          4    ;
          5
          6
          7    DYNAMICS
          8        DYNAMICS RESULTS=ON
          9
         10    IN-UNITS MET PRESSURE=bar TEMPERATURE=C DELTA-T=C PDROP=bar  &
         11            INVERSE-PRES='1/bar' SHORT-LENGTH=mm
         12
         13    DEF-STREAMS CONVEN ALL
         14
         15    MODEL-OPTION
         16
         17    DATABANKS 'APV100 PURE36' / 'APV100 AQUEOUS' / 'APV100 SOLIDS' &
         18             / 'APV100 INORGANIC' / 'APESV100 AP-EOS' /  &
         19            'NISTV100 NIST-TRC' / NOASPENPCD
         20
         21    PROP-SOURCES 'APV100 PURE36' / 'APV100 AQUEOUS' /  &
         22            'APV100 SOLIDS' / 'APV100 INORGANIC' / 'APESV100 AP-EOS' &
         23             / 'NISTV100 NIST-TRC'
         24
         25    COMPONENTS
         26        GLYCEROL C3H8O3 /
         27        TRIOL-01 C57H104O6 /
         28        TRILI-01 C57H98O6 /
         29        METHA-01 CH4O /
         30        METHY-01 C19H36O2 /
         31        METHY-02 C19H34O2 /
         32        UREA CH4N2O /
         33        CALCI-01 CAO /
         34        LANTH-01 LA2O3 /
         35        AMMON-01 H3N /
         36        GLYCE-01 C4H6O4-N1 /
         37        NITROGEN N2 /
         38        WATER H2O
         39
         40    CISOLID-COMPS CALCI-01 LANTH-01
         41
         42    SOLVE
         43        RUN-MODE MODE=SIM
         44
         45    FLOWSHEET
         46        HIERARCHY B2
         47        CONNECT $C-1 IN=S16 OUT="B2.S4"
         48        CONNECT $C-3 IN=CAOIN OUT="B2.CATIN"
         49        CONNECT $C-2 IN="B2.S5" OUT=S5
         50        BLOCK B4 IN=S6 OUT=S8 GLYCEROL
         51        BLOCK B3 IN=S5 OUT=S6 CATOUT
         52        BLOCK B1 IN=OILS METHANOL OUT=S4
         53        BLOCK B6 IN=S2 OUT=METHOUT BIOEXIN
         54        BLOCK B9 IN=GLYCEROL OUT=METHOUT2 S11
         55        BLOCK B8 IN=S10 OUT=S13
         56        BLOCK B12 IN=S13 OUT=S15 LAOOUT
         57        BLOCK B13 IN=S15 OUT=AMMONIA S17
         58        BLOCK B14 IN=S21 OUT=S18 GCHOT
         59        BLOCK B15 IN=S17 OUT=S21
         60        BLOCK HEATX1 IN=BIOEXIN S8 OUT=BIOEXOUT S2
         61        BLOCK B11 IN=LAOIN UREAIN S11 OUT=S9
         62        BLOCK HEATX2 IN=GCHOT S9 OUT=GCPROD S10
         63        BLOCK B7 IN=METHOUT2 OUT=S3 S7
         64        BLOCK B17 IN=S4 OUT=S1
         65        BLOCK B16 IN=S23 WATERCOO OUT=S20 WATERHOT
         66        BLOCK B19 IN=S3 OUT=S23
         67        BLOCK B5 IN=WATERHOT OUT=S12
         68        BLOCK B10 IN=S1 OUT=S16
         69
         70    PROPERTIES SR-POLAR
         71        PROPERTIES IDEAL / NRTL
         72
         73    ESTIMATE ALL
         74
         75    PROP-DATA PCES-1
         76        IN-UNITS MET PRESSURE=bar TEMPERATURE=C DELTA-T=C PDROP=bar  &
         77            INVERSE-PRES='1/bar' SHORT-LENGTH=mm
         78        PROP-LIST OMEGA / DHVLB / VB / RGYR / RKTZRA / VLSTD
         79        PVAL UREA .5992461800 / 20985.95586 / 48.82570000 /  &
         80            2.6000000E-10 / .2351731880 / 48.82570000
         81        PROP-LIST RKTZRA / VLSTD
         82        PVAL CALCI-01 .2918596200 / 298.9063450
         83        PVAL GLYCE-01 .2037543860 / 69.23640000
         84
         85    PROP-DATA DHVLWT-1
         86        IN-UNITS MET PRESSURE=bar TEMPERATURE=C DELTA-T=C PDROP=bar  &
         87            INVERSE-PRES='1/bar' SHORT-LENGTH=mm
         88        PROP-LIST DHVLWT
         89        PVAL CALCI-01 5.38817025E+5 3396.850000 .3800000000 0.0  &
         90            3396.850000
         91
         92    PROP-DATA KLDIP-1
         93        IN-UNITS MET PRESSURE=bar TEMPERATURE=C DELTA-T=C PDROP=bar  &
         94            INVERSE-PRES='1/bar' SHORT-LENGTH=mm
         95        PROP-LIST KLDIP
         96        PVAL UREA .0494897448 1.57543997E-3 -1.0085909E-5  &
         97            2.44404255E-8 -2.254923E-11 191.8500000 424.8000000
         98        PVAL CALCI-01 -.6218197112 7.78300188E-4 -2.8775749E-7  &
         99            4.5627261E-11 -2.727830E-15 3396.850000 5686.650000
        100
        101    PROP-DATA MULAND-1
        102        IN-UNITS MET PRESSURE=bar TEMPERATURE=C DELTA-T=C PDROP=bar  &
        103            INVERSE-PRES='1/bar' SHORT-LENGTH=mm
        104        PROP-LIST MULAND
        105        PVAL UREA 129.3349773 -7951.576030 -18.41338230 191.8500000  &
        106            424.8000000
        107        PVAL CALCI-01 81.01615608 -12127.32210 -10.25255770  &
        108            1126.850000 1706.850000
        109
        110    PROP-DATA PLXANT-1
        111        IN-UNITS MET PRESSURE=bar TEMPERATURE=C DELTA-T=C PDROP=bar  &
        112            INVERSE-PRES='1/bar' SHORT-LENGTH=mm
        113        PROP-LIST PLXANT
        114        PVAL UREA 77.19179774 -10639.35530 0.0 0.0 -8.846083610  &
        115            3.4142003E-18 6.000000000 191.8500000 431.8500000
        116
        117    PROP-DATA SIGDIP-1
        118        IN-UNITS MET PRESSURE=bar TEMPERATURE=C DELTA-T=C PDROP=bar  &
        119            INVERSE-PRES='1/bar' SHORT-LENGTH=mm
        120        PROP-LIST SIGDIP
        121        PVAL UREA 156.7709600 1.222222220 5.9537296E-10  &
        122            -6.635066E-10 2.6632382E-10 191.8500000 417.7500000
        123        PVAL GLYCE-01 156.3532160 1.222222220 5.9089352E-10  &
        124            -6.640628E-10 2.6313812E-10 323.7990000 543.1900000
        125        PVAL CALCI-01 139.2135830 1.222222220 -2.171954E-10  &
        126            2.3955375E-10 -9.673330E-11 3396.850000 5626.450000
        127
        128    PROP-DATA HOCETA-1
        129        IN-UNITS MET PRESSURE=bar TEMPERATURE=C DELTA-T=C PDROP=bar  &
        130            INVERSE-PRES='1/bar' SHORT-LENGTH=mm
        131        PROP-LIST HOCETA
        132        BPVAL METHA-01 METHA-01 1.630000000
        133        BPVAL METHA-01 AMMON-01 .2000000000
        134        BPVAL AMMON-01 METHA-01 .2000000000
        135
        136    PROP-DATA NRTL-1
        137        IN-UNITS MET PRESSURE=bar TEMPERATURE=C DELTA-T=C PDROP=bar  &
        138            INVERSE-PRES='1/bar' SHORT-LENGTH=mm
        139        PROP-LIST NRTL
        140        BPVAL GLYCEROL METHA-01 0.0 -218.5217000 .3000000000 0.0  &
        141            0.0 0.0 25.00000000 62.50000000
        142        BPVAL METHA-01 GLYCEROL 0.0 547.8301000 .3000000000 0.0  &
        143            0.0 0.0 25.00000000 62.50000000
        144
        145    STREAM CAOIN
        146        SUBSTREAM MIXED TEMP=25. PRES=1. MOLE-FLOW=66. <mol/hr>
        147        MOLE-FRAC CALCI-01 1.
        148
        149    STREAM LAOIN
        150        SUBSTREAM MIXED TEMP=25. PRES=1. MASS-FLOW=2.
        151        MOLE-FRAC LANTH-01 1.
        152
        153    STREAM METHANOL
        154        SUBSTREAM MIXED TEMP=25. PRES=1. MOLE-FLOW=19800. <mol/hr>
        155        MOLE-FRAC METHA-01 1.
        156
        157    STREAM OILS
        158        SUBSTREAM MIXED TEMP=25. PRES=1. MOLE-FLOW=2200. <mol/hr>
        159        MOLE-FRAC TRIOL-01 0.6 / TRILI-01 0.4
        160
        161    STREAM UREAIN
        162        SUBSTREAM MIXED TEMP=25. PRES=1. MASS-FLOW=109.
        163        MOLE-FRAC UREA 1.
        164
        165    STREAM WATERCOO
        166        SUBSTREAM MIXED TEMP=25. PRES=1. MOLE-FLOW=400.
        167        MOLE-FRAC WATER 1.
        168
        169    BLOCK B1 MIXER
        170        PARAM PRES=1. NPHASE=1 PHASE=L TOL=0.01 T-EST=25.
        171        PROPERTIES IDEAL FREE-WATER=STEAM-TA SOLU-WATER=3  &
        172            TRUE-COMPS=YES
        173        BLOCK-OPTION FREE-WATER=NO
        174
        175    BLOCK B11 MIXER
        176        PARAM PRES=1.
        177
        178    BLOCK B17 MIXER
        179        PARAM PRES=1. NPHASE=1 PHASE=L
        180        PROPERTIES IDEAL FREE-WATER=STEAM-TA SOLU-WATER=3  &
        181            TRUE-COMPS=YES
        182        BLOCK-OPTION FREE-WATER=NO
        183
        184    BLOCK B7 FSPLIT
        185        FRAC S3 0.99
        186
        187    BLOCK B5 HEATER
        188        PARAM TEMP=100. PRES=1. NPHASE=1 PHASE=V DPPARMOPT=NO
        189        BLOCK-OPTION FREE-WATER=NO
        190
        191    BLOCK B10 HEATER
        192        PARAM TEMP=65. PRES=1. NPHASE=1 PHASE=L DPPARMOPT=NO
        193        BLOCK-OPTION FREE-WATER=NO
        194
        195    BLOCK B9 FLASH2
        196        PARAM TEMP=100. PRES=0.2 MAXIT=30
        197        PROPERTIES SR-POLAR FREE-WATER=STEAM-TA SOLU-WATER=3  &
        198            TRUE-COMPS=YES
        199
        200    BLOCK B13 FLASH2
        201        PARAM PRES=0.5 DUTY=0.
        202
        203    BLOCK B4 DECANTER
        204        PARAM TEMP=65. PRES=1. LL-METH=EQ-SOLVE L2-COMPS=METHA-01  &
        205            L2-CUTOFF=0.5 MAXIT=30
        206
        207    BLOCK B16 HEATX
        208        PARAM T-HOT=60. CALC-TYPE=DESIGN TYPE=COUNTERCURRE  &
        209            PRES-HOT=1. U-OPTION=PHASE F-OPTION=CONSTANT  &
        210            CALC-METHOD=SHORTCUT
        211        FEEDS HOT=S23 COLD=WATERCOO
        212        OUTLETS-HOT S20
        213        OUTLETS-COLD WATERHOT
        214        PROPERTIES NRTL FREE-WATER=STEAM-TA SOLU-WATER=3  &
        215            TRUE-COMPS=YES / STEAM-TA FREE-WATER=STEAM-TA  &
        216            SOLU-WATER=3 TRUE-COMPS=YES
        217        HOT-SIDE DP-OPTION=CONSTANT DPPARMOPT=NO
        218        COLD-SIDE DP-OPTION=CONSTANT DPPARMOPT=NO
        219        TQ-PARAM CURVE=YES
        220
        221    BLOCK HEATX1 HEATX
        222        PARAM T-COLD=105. CALC-TYPE=DESIGN U-OPTION=PHASE  &
        223            F-OPTION=CONSTANT CALC-METHOD=SHORTCUT
        224        FEEDS HOT=BIOEXIN COLD=S8
        225        OUTLETS-HOT BIOEXOUT
        226        OUTLETS-COLD S2
        227        PROPERTIES NRTL FREE-WATER=STEAM-TA SOLU-WATER=3  &
        228            TRUE-COMPS=YES / NRTL FREE-WATER=STEAM-TA SOLU-WATER=3  &
        229            TRUE-COMPS=YES
        230        HOT-SIDE DP-OPTION=CONSTANT DPPARMOPT=NO
        231        COLD-SIDE DP-OPTION=CONSTANT DPPARMOPT=NO
        232        TQ-PARAM CURVE=YES
        233
        234    BLOCK HEATX2 HEATX
        235        PARAM T-COLD=140. CALC-TYPE=DESIGN U-OPTION=PHASE  &
        236            F-OPTION=CONSTANT CALC-METHOD=SHORTCUT
        237        FEEDS HOT=GCHOT COLD=S9
        238        OUTLETS-HOT GCPROD
        239        OUTLETS-COLD S10
        240        HOT-SIDE DP-OPTION=CONSTANT DPPARMOPT=NO
        241        COLD-SIDE DP-OPTION=CONSTANT DPPARMOPT=NO
        242        TQ-PARAM CURVE=YES
        243
        244    BLOCK B6 RADFRAC
        245        PARAM NSTAGE=3 ALGORITHM=NONIDEAL INIT-OPTION=STANDARD  &
        246            MAXOL=200 DAMPING=NONE
        247        COL-CONFIG CONDENSER=PARTIAL-V
        248        FEEDS S2 2 ABOVE-STAGE
        249        PRODUCTS BIOEXIN 3 L / METHOUT 1 V
        250        P-SPEC 1 1. / 2 1.
        251        COL-SPECS MASS-D:F=0.17 MASS-RR=3.
        252        DB:F-PARAMS STREAMS=S2
        253        PROPERTIES IDEAL FREE-WATER=STEAM-TA SOLU-WATER=3  &
        254            TRUE-COMPS=YES
        255
        256    BLOCK B14 RADFRAC
        257        PARAM NSTAGE=16 ALGORITHM=STANDARD MAXOL=25 DAMPING=NONE
        258        COL-CONFIG CONDENSER=PARTIAL-V
        259        FEEDS S21 10
        260        PRODUCTS S18 1 V / GCHOT 16 L
        261        P-SPEC 1 1.
        262        COL-SPECS MASS-D:F=0.18 MOLE-RR=3.
        263
        264    BLOCK B8 RSTOIC
        265        PARAM TEMP=140. PRES=3. <kPa>
        266        STOIC 1 MIXED GLYCEROL -1. / UREA -1. / AMMON-01 2. /  &
        267            GLYCE-01 1.
        268        CONV 1 MIXED GLYCEROL 0.85
        269
        270    HIERARCHY B2
        271
        272
        273    DEF-STREAMS CONVEN ALL
        274
        275    SOLVE
        276        PARAM METHOD=SM PROCESS=BATCH
        277        RUN-MODE MODE=SIM
        278
        279    FLOWSHEET
        280        BLOCK B1 IN=S1 OUT=S5
        281        BLOCK B2 IN=S4 CATIN OUT=S1
        282
        283    PROPERTIES SR-POLAR FREE-WATER=STEAM-TA SOLU-WATER=3  &
        284            TRUE-COMPS=YES
        285        PROPERTIES IDEAL / NRTL
        286
        287    BLOCK B2 MIXER
        288        PARAM PRES=1. NPHASE=1 PHASE=L
        289        PROPERTIES SR-POLAR FREE-WATER=STEAM-TA SOLU-WATER=3  &
        290            TRUE-COMPS=YES
        291        BLOCK-OPTION FREE-WATER=NO
        292
        293    BLOCK B1 BATCHOP
        294        PARAM TYPE=T-SPEC PRES=1. TEMP=65. NPHASE=1 PHASE=L
        295        INIT-COND FEED-TIME=1.
        296        DISCHARGE DISCHARGE-T=1.
        297        REACTIONS RXN-IDS=R-1 R-2
        298        BLOCK-OPTION FREE-WATER=NO
        299
        300    EO-CONV-OPTI
        301
        302    BATCH-OPTS
        303        PARAM MAX-TIME=6. OUTPUT-INT=0.05
        304
        305    ENDHIERARCHY B2
        306
        307    BLOCK B15 PUMP
        308        PARAM DELP=0.5
        309
        310    BLOCK B19 COMPR
        311        PARAM TYPE=ISENTROPIC DELP=0.8 NPHASE=2 SB-MAXIT=30  &
        312            SB-TOL=0.0001
        313        BLOCK-OPTION FREE-WATER=NO
        314
        315    BLOCK B3 CFUGE
        316        PARAM TYPE=SOLIDS-SEP NPHASE=2 PRES=1. DELT=0.
        317        SOLIDS-SEP SOLID-SPLIT=1. FLUID-SPLIT=1.
        318        PROPERTIES NRTL FREE-WATER=STEAM-TA SOLU-WATER=3  &
        319            TRUE-COMPS=YES
        320
        321    BLOCK B12 CFUGE
        322        PARAM TYPE=SOLIDS-SEP NPHASE=2 PRES=1.
        323        SOLIDS-SEP SOLID-SPLIT=1. FLUID-SPLIT=1.
        324
        325    EO-CONV-OPTI
        326
        327    STREAM-REPOR MOLEFLOW
        328
        329    PROPERTY-REP PCES
        330
        331    REACTIONS R-1 LHHW
        332        REAC-DATA 1
        333        RATE-CON 1 PRE-EXP=0.07 ACT-ENERGY=16.6 <kJ/mol>
        334        STOIC 1 MIXED TRIOL-01 -1. / METHA-01 -3. / METHY-01 3. / &
        335            GLYCEROL 1.
        336        DFORCE-EXP-1 1 MIXED TRIOL-01 1. / MIXED METHA-01 0. /  &
        337            MIXED METHY-01 0. / MIXED GLYCEROL 0.
        338        DFORCE-EQ-1 REACNO=1 A=0.
        339        DFORCE-EQ-2 REACNO=1 A=-52.95
        340
        341    REACTIONS R-2 LHHW
        342        REAC-DATA 1
        343        RATE-CON 1 PRE-EXP=0.07 ACT-ENERGY=16.6 <kJ/mol>
        344        STOIC 1 MIXED TRILI-01 -1. / METHA-01 -3. / GLYCEROL 1. / &
        345            METHY-02 3.
        346        DFORCE-EXP-1 1 MIXED TRILI-01 1. / MIXED METHA-01 0. /  &
        347            MIXED GLYCEROL 0. / MIXED METHY-02 0.
        348        DFORCE-EQ-1 REACNO=1 A=0.
        349        DFORCE-EQ-2 REACNO=1 A=-52.95
        350
        351    PROP-TABLE BINRY-2 PROPS
        352        IN-UNITS MET PRESSURE=bar TEMPERATURE=C DELTA-T=C PDROP=bar  &
        353            INVERSE-PRES='1/bar' SHORT-LENGTH=mm
        354        ANALYSIS ANAL-TYPE=GIBBS UNITS='cal/mol'
        355        PROPERTIES SR-POLAR FREE-WATER=STEAM-TA SOLU-WATER=3  &
        356            TRUE-COMPS=YES
        357        MOLE-FLOW GLYCEROL 1 /  METHY-01  1
        358        STATE PRES=1.
        359        VARY TEMP
        360        RANGE LIST=40.
        361        VARY MOLEFRAC COMP=GLYCEROL
        362        RANGE VARVALUE=RANGE LOWER=0.0 UPPER=1.0 NPOINT=50
        363        PARAM NPHASE=3
        364    ;
        365    ;
        366    ;
        367    ;
        368    ;
Added container block B2
 *** INPUT TRANSLATOR MESSAGES ***

  *** THIS RUN USES THE PROPERTIES ENTERPRISE DATABASE ***
      SQLLOCALDB.APESV100 : (DATAVERSION - 36.0.0.1)                          
      SQLLOCALDB.APV100 : (DATAVERSION - 36.0.0.21)                           
      SQLLOCALDB.FACTV100 : (DATAVERSION - 36.0.0.1)                          
      SQLLOCALDB.NISTV100 : (DATAVERSION - 36.0.0.15)                         

      INFORMATION IN PHYSICAL PROPERTY SYSTEM                  (PCERTE.10)      
      STRUCTURE FOR COMPONENT TRILI-01 HAS NOT BEEN DEFINED.                    
      PCES CANNOT USE GROUP-CONTRIBUTION METHODS TO ESTIMATE MISSING PROPERTIES.
      USE THE STRUCTURES PARAGRAPH TO DEFINE STRUCTURES OF THIS COMPONENT.      

      INFORMATION IN PHYSICAL PROPERTY SYSTEM                  (PCERTE.10)      
      STRUCTURE FOR COMPONENT UREA HAS NOT BEEN DEFINED.                        
      PCES CANNOT USE GROUP-CONTRIBUTION METHODS TO ESTIMATE MISSING PROPERTIES.
      USE THE STRUCTURES PARAGRAPH TO DEFINE STRUCTURES OF THIS COMPONENT.      

      INFORMATION IN PHYSICAL PROPERTY SYSTEM                  (PCERTE.10)      
      STRUCTURE FOR COMPONENT CALCI-01 HAS NOT BEEN DEFINED.                    
      PCES CANNOT USE GROUP-CONTRIBUTION METHODS TO ESTIMATE MISSING PROPERTIES.
      USE THE STRUCTURES PARAGRAPH TO DEFINE STRUCTURES OF THIS COMPONENT.      

      INFORMATION IN PHYSICAL PROPERTY SYSTEM                  (PCERTE.10)      
      STRUCTURE FOR COMPONENT LANTH-01 HAS NOT BEEN DEFINED.                    
      PCES CANNOT USE GROUP-CONTRIBUTION METHODS TO ESTIMATE MISSING PROPERTIES.
      USE THE STRUCTURES PARAGRAPH TO DEFINE STRUCTURES OF THIS COMPONENT.      

      INFORMATION IN PHYSICAL PROPERTY SYSTEM                  (PCERTE.10)      
      STRUCTURE FOR COMPONENT GLYCE-01 HAS NOT BEEN DEFINED.                    
      PCES CANNOT USE GROUP-CONTRIBUTION METHODS TO ESTIMATE MISSING PROPERTIES.
      USE THE STRUCTURES PARAGRAPH TO DEFINE STRUCTURES OF THIS COMPONENT.      

      INFORMATION IN PHYSICAL PROPERTY SYSTEM                  (LOADMW.5)       
      MW AVAILABLE FOR COMPONENT TRILI-01 IS DIFFERENT FROM MW                  
      CALCULATED FROM FORMULA (ATOMNO/NOATOM).  CALCULATED VALUE IS USED.       
      AVAILABLE MW =   879.3840     CALCULATED MW =   879.4015                  

  *   WARNING IN PHYSICAL PROPERTY SYSTEM                      (LCLIMS.4)       
      PARAMETER DHVLWT/ELEMENT  1 (DATA SET 1)                                  
      UPPER BOUND VIOLATED FOR COMPONENT CALCI-01                               
      VALUE =  0.22559E+10, UPPER BOUND =  0.60000E+09                          

  *   WARNING IN PHYSICAL PROPERTY SYSTEM                      (LCLIMS.4)       
      PARAMETER DHVLWT/ELEMENT  5 (DATA SET 1)                                  
      UPPER BOUND VIOLATED FOR COMPONENT CALCI-01                               
      VALUE =   3670.0    , UPPER BOUND =   1500.0                              

  *   WARNING WHILE CHECKING INPUT SPECIFICATIONS              (PRPCHK.1)       
      INCONSISTENT PROPERTIES DETECTED FOR 8 STREAMS                            
      (SEE CONTROL PANEL OR HISTORY FILE FOR FULL LIST)                         
      SOURCE BLOCK        PROPERTIES STREAM   DESTINATION BLOCK   PROPERTIES    
      =================== ========== ======== =================== ==========    
      B3                  NRTL       S6       B4                  SR-POLAR      
      B2.B1               SR-POLAR   S5       B3                  NRTL          
      HEATX1              NRTL       S2       B6                  IDEAL         
      B6                  IDEAL      BIOEXIN  HEATX1              NRTL          
      B4                  SR-POLAR   S8       HEATX1              NRTL          
      B19                 SR-POLAR   S23      B16                 NRTL          
      B16                 STEAM-TA   WATERHOT B5                  SR-POLAR      
      B17                 IDEAL      S1       B10                 SR-POLAR      
 
 

 PDF updated                                                                      TIME =      7.13


 THE FOLLOWING PURE COMPONENT PARAMETERS ARE ESTIMATED FOR MODEL ESRKU:


 COMPONENT GLYCEROL
      POLAR PARAMETER RKUPP0 =    -0.065662
                      RKUPP1 =     3.433459
                      RKUPP2 =    -6.929989

 COMPONENT TRIOL-01
      POLAR PARAMETER RKUPP0 =     4.099804
                      RKUPP1 =    -3.004889
                      RKUPP2 =     2.162829

 COMPONENT TRILI-01
      POLAR PARAMETER RKUPP0 =     4.075085
                      RKUPP1 =    -3.003402
                      RKUPP2 =     2.160700

 COMPONENT METHA-01
      POLAR PARAMETER RKUPP0 =     0.162227
                      RKUPP1 =    -1.430134
                      RKUPP2 =     0.008900

 COMPONENT METHY-01
      POLAR PARAMETER RKUPP0 =    -0.028342
                      RKUPP1 =   -11.709490
                      RKUPP2 =    14.975620

 COMPONENT METHY-02
      POLAR PARAMETER RKUPP0 =     0.959016
                      RKUPP1 =    -2.964248
                      RKUPP2 =     2.123185

 COMPONENT UREA    
      POLAR PARAMETER RKUPP0 =    -0.323045
                      RKUPP1 =    -2.966432
                      RKUPP2 =     2.198500

 COMPONENT CALCI-01
      POLAR PARAMETER RKUPP0 =     0.711866
                      RKUPP1 =    -4.328770
                      RKUPP2 =    -5.480186

 COMPONENT LANTH-01
      POLAR PARAMETER RKUPP0 =     0.000000
                      RKUPP1 =     0.000000
                      RKUPP2 =     0.000000

 COMPONENT AMMON-01
      POLAR PARAMETER RKUPP0 =     0.036832
                      RKUPP1 =    -0.837919
                      RKUPP2 =    -0.809507

 COMPONENT GLYCE-01
      POLAR PARAMETER RKUPP0 =     0.000000
                      RKUPP1 =     0.000000
                      RKUPP2 =     0.000000

 COMPONENT NITROGEN
      POLAR PARAMETER RKUPP0 =     0.000000
                      RKUPP1 =     0.000000
                      RKUPP2 =     0.000000

 COMPONENT WATER   
      POLAR PARAMETER RKUPP0 =     0.065549
                      RKUPP1 =    -0.560763
                      RKUPP2 =    -1.260662

 THE FOLLOWING BINARY-INTERACTION PARAMETERS ARE ESTIMATED FOR MODEL ESRKU:


 BINARY GLYCEROL - TRIOL-01

      INTERACTION PARAMETERS NOT PREDICTED BECAUSE UNIFAC GENERATES VERY LOW OR HIGH PRESSURE DATA

 BINARY GLYCEROL - TRILI-01

      INTERACTION PARAMETERS NOT PREDICTED BECAUSE UNIFAC GROUP PARAMETERS ARE MISSING

 BINARY GLYCEROL - METHA-01
      RKUKA0 =   -0.121950    
      RKUKA2 =     23.8381    
      RKULA0 =    0.341113E-01
      RKULA2 =    -10.0315    

      FOR     298.15 (K) <= T <=    318.15 (K)


 BINARY GLYCEROL - METHY-01

      INTERACTION PARAMETERS NOT PREDICTED BECAUSE UNIFAC GENERATES VERY LOW OR HIGH PRESSURE DATA

 BINARY GLYCEROL - METHY-02

      INTERACTION PARAMETERS NOT PREDICTED BECAUSE UNIFAC GENERATES VERY LOW OR HIGH PRESSURE DATA

 BINARY GLYCEROL - UREA    

      INTERACTION PARAMETERS NOT PREDICTED BECAUSE UNIFAC GROUP PARAMETERS ARE MISSING

 BINARY GLYCEROL - CALCI-01

      INTERACTION PARAMETERS NOT PREDICTED BECAUSE UNIFAC GROUP PARAMETERS ARE MISSING

 BINARY GLYCEROL - LANTH-01

      INTERACTION PARAMETERS CANNOT BE PREDICTED USING UNIFAC

 BINARY GLYCEROL - GLYCE-01

      INTERACTION PARAMETERS NOT PREDICTED BECAUSE UNIFAC GROUP PARAMETERS ARE MISSING

 BINARY GLYCEROL - WATER   
      RKUKA0 =    0.603974E-02
      RKUKA2 =    -15.3785    
      RKULA0 =    0.789942E-02
      RKULA2 =    -2.78712    

      FOR     298.15 (K) <= T <=    318.15 (K)


 BINARY TRIOL-01 - TRILI-01

      INTERACTION PARAMETERS NOT PREDICTED BECAUSE UNIFAC GROUP PARAMETERS ARE MISSING

 BINARY TRIOL-01 - METHA-01

      INTERACTION PARAMETERS NOT PREDICTED BECAUSE UNIFAC GENERATES VERY LOW OR HIGH PRESSURE DATA

 BINARY TRIOL-01 - METHY-01

      INTERACTION PARAMETERS NOT PREDICTED BECAUSE UNIFAC GENERATES VERY LOW OR HIGH PRESSURE DATA

 BINARY TRIOL-01 - METHY-02

      INTERACTION PARAMETERS NOT PREDICTED BECAUSE UNIFAC GENERATES VERY LOW OR HIGH PRESSURE DATA

 BINARY TRIOL-01 - UREA    

      INTERACTION PARAMETERS NOT PREDICTED BECAUSE UNIFAC GROUP PARAMETERS ARE MISSING

 BINARY TRIOL-01 - CALCI-01

      INTERACTION PARAMETERS NOT PREDICTED BECAUSE UNIFAC GROUP PARAMETERS ARE MISSING

 BINARY TRIOL-01 - LANTH-01

      INTERACTION PARAMETERS NOT PREDICTED BECAUSE UNIFAC GROUP PARAMETERS ARE MISSING

 BINARY TRIOL-01 - GLYCE-01

      INTERACTION PARAMETERS NOT PREDICTED BECAUSE UNIFAC GROUP PARAMETERS ARE MISSING

 BINARY TRIOL-01 - WATER   

      INTERACTION PARAMETERS NOT PREDICTED BECAUSE UNIFAC GENERATES VERY LOW OR HIGH PRESSURE DATA

 BINARY TRILI-01 - METHA-01

      INTERACTION PARAMETERS NOT PREDICTED BECAUSE UNIFAC GROUP PARAMETERS ARE MISSING

 BINARY TRILI-01 - METHY-01

      INTERACTION PARAMETERS NOT PREDICTED BECAUSE UNIFAC GROUP PARAMETERS ARE MISSING

 BINARY TRILI-01 - METHY-02

      INTERACTION PARAMETERS NOT PREDICTED BECAUSE UNIFAC GROUP PARAMETERS ARE MISSING

 BINARY TRILI-01 - UREA    

      INTERACTION PARAMETERS NOT PREDICTED BECAUSE UNIFAC GROUP PARAMETERS ARE MISSING

 BINARY TRILI-01 - CALCI-01

      INTERACTION PARAMETERS NOT PREDICTED BECAUSE UNIFAC GROUP PARAMETERS ARE MISSING

 BINARY TRILI-01 - LANTH-01

      INTERACTION PARAMETERS NOT PREDICTED BECAUSE UNIFAC GROUP PARAMETERS ARE MISSING

 BINARY TRILI-01 - GLYCE-01

      INTERACTION PARAMETERS NOT PREDICTED BECAUSE UNIFAC GROUP PARAMETERS ARE MISSING

 BINARY TRILI-01 - WATER   

      INTERACTION PARAMETERS NOT PREDICTED BECAUSE UNIFAC GROUP PARAMETERS ARE MISSING

 BINARY METHA-01 - METHY-01
      RKUKA0 =   -0.597541E-01
      RKUKA2 =     2.71431    
      RKULA0 =   -0.139340E-01
      RKULA2 =    -11.3968    

      FOR     298.15 (K) <= T <=    318.15 (K)


 BINARY METHA-01 - METHY-02
      RKUKA0 =    0.153105E-01
      RKUKA2 =    -25.2241    
      RKULA0 =   -0.182201E-02
      RKULA2 =    -16.6520    

      FOR     298.15 (K) <= T <=    318.15 (K)


 BINARY METHA-01 - UREA    

      INTERACTION PARAMETERS NOT PREDICTED BECAUSE UNIFAC GROUP PARAMETERS ARE MISSING

 BINARY METHA-01 - CALCI-01

      INTERACTION PARAMETERS NOT PREDICTED BECAUSE UNIFAC GROUP PARAMETERS ARE MISSING

 BINARY METHA-01 - LANTH-01

      INTERACTION PARAMETERS CANNOT BE PREDICTED USING UNIFAC

 BINARY METHA-01 - GLYCE-01

      INTERACTION PARAMETERS NOT PREDICTED BECAUSE UNIFAC GROUP PARAMETERS ARE MISSING

 BINARY METHA-01 - WATER   
      RKUKA0 =   -0.553952E-01
      RKUKA2 =    -9.48761    
      RKULA0 =    0.171613E-01
      RKULA2 =    -3.75214    

      FOR     298.15 (K) <= T <=    318.15 (K)


 BINARY METHY-01 - METHY-02

      INTERACTION PARAMETERS NOT PREDICTED BECAUSE UNIFAC GENERATES VERY LOW OR HIGH PRESSURE DATA

 BINARY METHY-01 - UREA    

      INTERACTION PARAMETERS NOT PREDICTED BECAUSE UNIFAC GROUP PARAMETERS ARE MISSING

 BINARY METHY-01 - CALCI-01

      INTERACTION PARAMETERS NOT PREDICTED BECAUSE UNIFAC GROUP PARAMETERS ARE MISSING

 BINARY METHY-01 - LANTH-01

      INTERACTION PARAMETERS NOT PREDICTED BECAUSE UNIFAC GROUP PARAMETERS ARE MISSING

 BINARY METHY-01 - GLYCE-01

      INTERACTION PARAMETERS NOT PREDICTED BECAUSE UNIFAC GROUP PARAMETERS ARE MISSING

 BINARY METHY-01 - WATER   
      RKUKA0 =    0.111729    
      RKUKA2 =    -102.712    
      RKULA0 =    0.254424    
      RKULA2 =    -28.7397    

      FOR     298.15 (K) <= T <=    318.15 (K)


 BINARY METHY-02 - UREA    

      INTERACTION PARAMETERS NOT PREDICTED BECAUSE UNIFAC GROUP PARAMETERS ARE MISSING

 BINARY METHY-02 - CALCI-01

      INTERACTION PARAMETERS NOT PREDICTED BECAUSE UNIFAC GROUP PARAMETERS ARE MISSING

 BINARY METHY-02 - LANTH-01

      INTERACTION PARAMETERS NOT PREDICTED BECAUSE UNIFAC GROUP PARAMETERS ARE MISSING

 BINARY METHY-02 - GLYCE-01

      INTERACTION PARAMETERS NOT PREDICTED BECAUSE UNIFAC GROUP PARAMETERS ARE MISSING

 BINARY METHY-02 - WATER   
      RKUKA0 =   -0.292058    
      RKUKA2 =     12.7089    
      RKULA0 =    0.632576    
      RKULA2 =    -152.434    

      FOR     298.15 (K) <= T <=    318.15 (K)


 BINARY UREA     - CALCI-01

      INTERACTION PARAMETERS NOT PREDICTED BECAUSE UNIFAC GROUP PARAMETERS ARE MISSING

 BINARY UREA     - LANTH-01

      INTERACTION PARAMETERS CANNOT BE PREDICTED USING UNIFAC

 BINARY UREA     - GLYCE-01

      INTERACTION PARAMETERS NOT PREDICTED BECAUSE UNIFAC GROUP PARAMETERS ARE MISSING

 BINARY UREA     - WATER   

      INTERACTION PARAMETERS NOT PREDICTED BECAUSE UNIFAC GROUP PARAMETERS ARE MISSING

 BINARY CALCI-01 - LANTH-01

      INTERACTION PARAMETERS CANNOT BE PREDICTED USING UNIFAC

 BINARY CALCI-01 - GLYCE-01

      INTERACTION PARAMETERS NOT PREDICTED BECAUSE UNIFAC GROUP PARAMETERS ARE MISSING

 BINARY CALCI-01 - WATER   

      INTERACTION PARAMETERS NOT PREDICTED BECAUSE UNIFAC GROUP PARAMETERS ARE MISSING

 BINARY LANTH-01 - GLYCE-01

      INTERACTION PARAMETERS CANNOT BE PREDICTED USING UNIFAC

 BINARY LANTH-01 - WATER   

      INTERACTION PARAMETERS CANNOT BE PREDICTED USING UNIFAC

 BINARY GLYCE-01 - WATER   

      INTERACTION PARAMETERS NOT PREDICTED BECAUSE UNIFAC GROUP PARAMETERS ARE MISSING

 *** CALCULATION TRACE ***


 *** FLOWSHEET ANALYSIS MESSAGES ***

 FLOWSHEET CONNECTIVITY BY STREAMS       

 FLOWSHEET SECTION GLOBAL  
   STREAM     SOURCE     DEST           STREAM     SOURCE     DEST
   CAOIN      ----       $C-3           METHANOL   ----       B1      
   OILS       ----       B1             UREAIN     ----       B11     
   LAOIN      ----       B11            WATERCOO   ----       B16     
   S5         $C-2       B3             S8         B4         HEATX1  
   GLYCEROL   B4         B9             S6         B3         B4      
   CATOUT     B3         ----           S4         B1         B17     
   METHOUT    B6         ----           BIOEXIN    B6         HEATX1  
   METHOUT2   B9         B7             S11        B9         B11     
   S13        B8         B12            S15        B12        B13     
   LAOOUT     B12        ----           AMMONIA    B13        ----    
   S17        B13        B15            S18        B14        ----    
   GCHOT      B14        HEATX2         S21        B15        B14     
   BIOEXOUT   HEATX1     ----           S2         HEATX1     B6      
   S9         B11        HEATX2         GCPROD     HEATX2     ----    
   S10        HEATX2     B8             S3         B7         B19     
   S7         B7         ----           S1         B17        B10     
   S20        B16        ----           WATERHOT   B16        B5      
   S23        B19        B16            S12        B5         ----    
   S16        B10        $C-1                                         

 FLOWSHEET CONNECTIVITY BY BLOCKS        

 FLOWSHEET SECTION GLOBAL  
   BLOCK        INLETS                         OUTLETS
   $C-1         S16                            S4                          
   $C-3         CAOIN                          CATIN                       
   $C-2         S5                             S5                          
   B4           S6                             S8 GLYCEROL                 
   B3           S5                             S6 CATOUT                   
   B1           OILS METHANOL                  S4                          
   B6           S2                             METHOUT BIOEXIN             
   B9           GLYCEROL                       METHOUT2 S11                
   B8           S10                            S13                         
   B12          S13                            S15 LAOOUT                  
   B13          S15                            AMMONIA S17                 
   B14          S21                            S18 GCHOT                   
   B15          S17                            S21                         
   HEATX1       BIOEXIN S8                     BIOEXOUT S2                 
   B11          LAOIN UREAIN S11               S9                          
   HEATX2       GCHOT S9                       GCPROD S10                  
   B7           METHOUT2                       S3 S7                       
   B17          S4                             S1                          
   B16          S23 WATERCOO                   S20 WATERHOT                
   B19          S3                             S23                         
   B5           WATERHOT                       S12                         
   B10          S1                             S16                         

      BATCH CONVERGENCE BLOCK $BASVR01 HAS BEEN DEFINED

      BLOCK $OLVER02 (METHOD: WEGSTEIN) HAS BEEN DEFINED TO CONVERGE
               STREAMS: BIOEXIN

      BLOCK $OLVER03 (METHOD: WEGSTEIN) HAS BEEN DEFINED TO CONVERGE
               STREAMS: GCHOT

      COMPUTATION ORDER FOR THE FLOWSHEET IS:
      B1 B17 $C-3 B10 $C-1 
      B2.$BASVR01 B2.B2 B2.B1 
      (RETURN B2.$BASVR01) 
      $C-2 B3 B4 
      $OLVER02 HEATX1 B6 
      (RETURN $OLVER02) 
      B9 B7 B19 B16 B5 B11 
      $OLVER03 HEATX2 B8 B12 B13 B15 B14 
      (RETURN $OLVER03) 

Calculations begin                                                              time      0.08


 SIMULATION CALCULATIONS BEGIN                                                    TIME =      0.08

      ENTHALPY CALCULATION FOR INLET STREAM OILS OF BLOCK B1                      TIME =      0.08
      KODE = 2  NTRIAL =   3  T = 298.1500  P =  100000.      V =  0.00000      Q =  0.00000    

      ENTHALPY CALCULATION FOR INLET STREAM METHANOL OF BLOCK B1                  TIME =      0.08
      KODE = 2  NTRIAL =   1  T = 298.1500  P =  100000.      V =  0.00000      Q =  0.00000    

      UOS BLOCK B1       MODEL: MIXER                                             TIME =      0.08
      KODE = 1   NO. TEMP ITER =    1     TEMP =  298.150    
      KPHASE =    2 KODE =    1 T =  298.150     P =  100000.     Q =  0.00000    

      UOS BLOCK B17      MODEL: MIXER                                             TIME =      0.08
      KODE = 1   NO. TEMP ITER =    4     TEMP =  298.150    
      KPHASE =    2 KODE =    1 T =  298.150     P =  100000.     Q =  0.00000    

      ENTHALPY CALCULATION FOR INLET STREAM CAOIN OF BLOCK $C-3                   TIME =      0.08
      KODE = 2   NO. TEMP ITER =    1     TEMP =  298.150    
      KPHASE =    3 KODE =    2 T =  298.150     P =  100000.     Q =  0.00000    

      UOS BLOCK $C-3     MODEL: DUPL                                              TIME =      0.08

      UOS BLOCK B10      MODEL: HEATER                                            TIME =      0.08
      KODE = 2   NO. TEMP ITER =    1     TEMP =  338.150    
      KPHASE =    2 KODE =    2 T =  338.150     P =  100000.     Q =  308053.    

      UOS BLOCK $C-1     MODEL: DUPL                                              TIME =      0.08

      Batch Convergence Block $BASVR01 Hierarchy: B2                              TIME =      0.08

  *   WARNING WHILE EXECUTING BATCH CONVERGENC BLOCK: "$BASVR01" IN "B2"        
                                                               (WRTVARIN.1)     
      No active unit procedure is detected. The simulation will run to          
      the maximum integration time of 6.000 HR                                  

      Start task machine for batch B2.$BASVR01
         # Tasks =    0 NVTEAR =    0 NVTASK =    0 NVVARG =    0

      UOS BLOCK B2       MODEL: MIXER        HIERARCHY: B2                        TIME =      0.08
      KODE = 1   NO. TEMP ITER =    6     TEMP =  338.097    
      KPHASE =    2 KODE =    1 T =  338.097     P =  100000.     Q =  0.00000    

      UOS BLOCK B1       MODEL: BATCHOP      HIERARCHY: B2                        TIME =      0.08

      UOS BLOCK B1       MODEL: BATCHOP      HIERARCHY: B2                        TIME =      0.08
      STREAM B2.S5 WILL BE FLASHED FOR PROPERTY CALCULATIONS.
      KODE = 2   NO. TEMP ITER =    1     TEMP =  338.097    
      KPHASE =    2 KODE =    2 T =  338.097     P =  100000.     Q =-1.074539E-07

      UOS BLOCK B1       MODEL: BATCHOP      HIERARCHY: B2                        TIME =      0.29

      Integrating from  0.0000     to 0.10000E-01 by 0.10000E-01 HR

      UOS BLOCK B2       MODEL: MIXER        HIERARCHY: B2                        TIME =      0.36
      KODE = 1   NO. TEMP ITER =    1     TEMP =  338.097    
      KPHASE =    2 KODE =    1 T =  338.097     P =  100000.     Q =  0.00000    

      UOS BLOCK B1       MODEL: BATCHOP      HIERARCHY: B2                        TIME =      0.37

      UOS BLOCK B1       MODEL: BATCHOP      HIERARCHY: B2                        TIME =      0.38

      Integrating from 0.10000E-01 to 0.20000E-01 by 0.10000E-01 HR

      UOS BLOCK B2       MODEL: MIXER        HIERARCHY: B2                        TIME =      0.38
      KODE = 1   NO. TEMP ITER =    1     TEMP =  338.097    
      KPHASE =    2 KODE =    1 T =  338.097     P =  100000.     Q =  0.00000    

      UOS BLOCK B1       MODEL: BATCHOP      HIERARCHY: B2                        TIME =      0.38

      UOS BLOCK B1       MODEL: BATCHOP      HIERARCHY: B2                        TIME =      0.38

      Integrating from 0.20000E-01 to 0.30000E-01 by 0.10000E-01 HR

      UOS BLOCK B2       MODEL: MIXER        HIERARCHY: B2                        TIME =      0.38
      KODE = 1   NO. TEMP ITER =    1     TEMP =  338.097    
      KPHASE =    2 KODE =    1 T =  338.097     P =  100000.     Q =  0.00000    

      UOS BLOCK B1       MODEL: BATCHOP      HIERARCHY: B2                        TIME =      0.38

      UOS BLOCK B1       MODEL: BATCHOP      HIERARCHY: B2                        TIME =      0.39

      Integrating from 0.30000E-01 to 0.40000E-01 by 0.10000E-01 HR

      UOS BLOCK B2       MODEL: MIXER        HIERARCHY: B2                        TIME =      0.39
      KODE = 1   NO. TEMP ITER =    1     TEMP =  338.097    
      KPHASE =    2 KODE =    1 T =  338.097     P =  100000.     Q =  0.00000    

      UOS BLOCK B1       MODEL: BATCHOP      HIERARCHY: B2                        TIME =      0.39

      UOS BLOCK B1       MODEL: BATCHOP      HIERARCHY: B2                        TIME =      0.39

      Integrating from 0.40000E-01 to 0.50000E-01 by 0.10000E-01 HR

      UOS BLOCK B2       MODEL: MIXER        HIERARCHY: B2                        TIME =      0.39
      KODE = 1   NO. TEMP ITER =    1     TEMP =  338.097    
      KPHASE =    2 KODE =    1 T =  338.097     P =  100000.     Q =  0.00000    

      UOS BLOCK B1       MODEL: BATCHOP      HIERARCHY: B2                        TIME =      0.39

      UOS BLOCK B1       MODEL: BATCHOP      HIERARCHY: B2                        TIME =      0.50

      Integrating from 0.50000E-01 to 0.60000E-01 by 0.10000E-01 HR

      UOS BLOCK B2       MODEL: MIXER        HIERARCHY: B2                        TIME =      0.58
      KODE = 1   NO. TEMP ITER =    1     TEMP =  338.097    
      KPHASE =    2 KODE =    1 T =  338.097     P =  100000.     Q =  0.00000    

      UOS BLOCK B1       MODEL: BATCHOP      HIERARCHY: B2                        TIME =      0.58

      UOS BLOCK B1       MODEL: BATCHOP      HIERARCHY: B2                        TIME =      0.58

      Integrating from 0.60000E-01 to 0.70000E-01 by 0.10000E-01 HR

      UOS BLOCK B2       MODEL: MIXER        HIERARCHY: B2                        TIME =      0.58
      KODE = 1   NO. TEMP ITER =    1     TEMP =  338.097    
      KPHASE =    2 KODE =    1 T =  338.097     P =  100000.     Q =  0.00000    

      UOS BLOCK B1       MODEL: BATCHOP      HIERARCHY: B2                        TIME =      0.58

      UOS BLOCK B1       MODEL: BATCHOP      HIERARCHY: B2                        TIME =      0.59

      Integrating from 0.70000E-01 to 0.80000E-01 by 0.10000E-01 HR

      UOS BLOCK B2       MODEL: MIXER        HIERARCHY: B2                        TIME =      0.59
      KODE = 1   NO. TEMP ITER =    1     TEMP =  338.097    
      KPHASE =    2 KODE =    1 T =  338.097     P =  100000.     Q =  0.00000    

      UOS BLOCK B1       MODEL: BATCHOP      HIERARCHY: B2                        TIME =      0.59

      UOS BLOCK B1       MODEL: BATCHOP      HIERARCHY: B2                        TIME =      0.59

      Integrating from 0.80000E-01 to 0.90000E-01 by 0.10000E-01 HR

      UOS BLOCK B2       MODEL: MIXER        HIERARCHY: B2                        TIME =      0.59
      KODE = 1   NO. TEMP ITER =    1     TEMP =  338.097    
      KPHASE =    2 KODE =    1 T =  338.097     P =  100000.     Q =  0.00000    

      UOS BLOCK B1       MODEL: BATCHOP      HIERARCHY: B2                        TIME =      0.59

      UOS BLOCK B1       MODEL: BATCHOP      HIERARCHY: B2                        TIME =      0.59

      Integrating from 0.90000E-01 to 0.10000     by 0.10000E-01 HR

      UOS BLOCK B2       MODEL: MIXER        HIERARCHY: B2                        TIME =      0.59
      KODE = 1   NO. TEMP ITER =    1     TEMP =  338.097    
      KPHASE =    2 KODE =    1 T =  338.097     P =  100000.     Q =  0.00000    

      UOS BLOCK B1       MODEL: BATCHOP      HIERARCHY: B2                        TIME =      0.59

      UOS BLOCK B1       MODEL: BATCHOP      HIERARCHY: B2                        TIME =      0.69

      Integrating from 0.10000     to 0.11000     by 0.10000E-01 HR

      UOS BLOCK B2       MODEL: MIXER        HIERARCHY: B2                        TIME =      0.78
      KODE = 1   NO. TEMP ITER =    1     TEMP =  338.097    
      KPHASE =    2 KODE =    1 T =  338.097     P =  100000.     Q =  0.00000    

      UOS BLOCK B1       MODEL: BATCHOP      HIERARCHY: B2                        TIME =      0.78

      UOS BLOCK B1       MODEL: BATCHOP      HIERARCHY: B2                        TIME =      0.78

      Integrating from 0.11000     to 0.12000     by 0.10000E-01 HR

      UOS BLOCK B2       MODEL: MIXER        HIERARCHY: B2                        TIME =      0.78
      KODE = 1   NO. TEMP ITER =    1     TEMP =  338.097    
      KPHASE =    2 KODE =    1 T =  338.097     P =  100000.     Q =  0.00000    

      UOS BLOCK B1       MODEL: BATCHOP      HIERARCHY: B2                        TIME =      0.78

      UOS BLOCK B1       MODEL: BATCHOP      HIERARCHY: B2                        TIME =      0.78

      Integrating from 0.12000     to 0.13000     by 0.10000E-01 HR

      UOS BLOCK B2       MODEL: MIXER        HIERARCHY: B2                        TIME =      0.78
      KODE = 1   NO. TEMP ITER =    1     TEMP =  338.097    
      KPHASE =    2 KODE =    1 T =  338.097     P =  100000.     Q =  0.00000    

      UOS BLOCK B1       MODEL: BATCHOP      HIERARCHY: B2                        TIME =      0.78

      UOS BLOCK B1       MODEL: BATCHOP      HIERARCHY: B2                        TIME =      0.79

      Integrating from 0.13000     to 0.14000     by 0.10000E-01 HR

      UOS BLOCK B2       MODEL: MIXER        HIERARCHY: B2                        TIME =      0.79
      KODE = 1   NO. TEMP ITER =    1     TEMP =  338.097    
      KPHASE =    2 KODE =    1 T =  338.097     P =  100000.     Q =  0.00000    

      UOS BLOCK B1       MODEL: BATCHOP      HIERARCHY: B2                        TIME =      0.79

      UOS BLOCK B1       MODEL: BATCHOP      HIERARCHY: B2                        TIME =      0.80

      Integrating from 0.14000     to 0.15000     by 0.10000E-01 HR

      UOS BLOCK B2       MODEL: MIXER        HIERARCHY: B2                        TIME =      0.80
      KODE = 1   NO. TEMP ITER =    1     TEMP =  338.097    
      KPHASE =    2 KODE =    1 T =  338.097     P =  100000.     Q =  0.00000    

      UOS BLOCK B1       MODEL: BATCHOP      HIERARCHY: B2                        TIME =      0.80

      UOS BLOCK B1       MODEL: BATCHOP      HIERARCHY: B2                        TIME =      0.92

      Integrating from 0.15000     to 0.16000     by 0.10000E-01 HR

      UOS BLOCK B2       MODEL: MIXER        HIERARCHY: B2                        TIME =      0.99
      KODE = 1   NO. TEMP ITER =    1     TEMP =  338.097    
      KPHASE =    2 KODE =    1 T =  338.097     P =  100000.     Q =  0.00000    

      UOS BLOCK B1       MODEL: BATCHOP      HIERARCHY: B2                        TIME =      0.99

      UOS BLOCK B1       MODEL: BATCHOP      HIERARCHY: B2                        TIME =      0.99

      Integrating from 0.16000     to 0.17000     by 0.10000E-01 HR

      UOS BLOCK B2       MODEL: MIXER        HIERARCHY: B2                        TIME =      0.99
      KODE = 1   NO. TEMP ITER =    1     TEMP =  338.097    
      KPHASE =    2 KODE =    1 T =  338.097     P =  100000.     Q =  0.00000    

      UOS BLOCK B1       MODEL: BATCHOP      HIERARCHY: B2                        TIME =      0.99

      UOS BLOCK B1       MODEL: BATCHOP      HIERARCHY: B2                        TIME =      0.99

      Integrating from 0.17000     to 0.18000     by 0.10000E-01 HR

      UOS BLOCK B2       MODEL: MIXER        HIERARCHY: B2                        TIME =      0.99
      KODE = 1   NO. TEMP ITER =    1     TEMP =  338.097    
      KPHASE =    2 KODE =    1 T =  338.097     P =  100000.     Q =  0.00000    

      UOS BLOCK B1       MODEL: BATCHOP      HIERARCHY: B2                        TIME =      0.99

      UOS BLOCK B1       MODEL: BATCHOP      HIERARCHY: B2                        TIME =      0.99

      Integrating from 0.18000     to 0.19000     by 0.10000E-01 HR

      UOS BLOCK B2       MODEL: MIXER        HIERARCHY: B2                        TIME =      0.99
      KODE = 1   NO. TEMP ITER =    1     TEMP =  338.097    
      KPHASE =    2 KODE =    1 T =  338.097     P =  100000.     Q =  0.00000    

      UOS BLOCK B1       MODEL: BATCHOP      HIERARCHY: B2                        TIME =      0.99

      UOS BLOCK B1       MODEL: BATCHOP      HIERARCHY: B2                        TIME =      1.00

      Integrating from 0.19000     to 0.20000     by 0.10000E-01 HR

      UOS BLOCK B2       MODEL: MIXER        HIERARCHY: B2                        TIME =      1.00
      KODE = 1   NO. TEMP ITER =    1     TEMP =  338.097    
      KPHASE =    2 KODE =    1 T =  338.097     P =  100000.     Q =  0.00000    

      UOS BLOCK B1       MODEL: BATCHOP      HIERARCHY: B2                        TIME =      1.00

      UOS BLOCK B1       MODEL: BATCHOP      HIERARCHY: B2                        TIME =      1.11

      Integrating from 0.20000     to 0.21000     by 0.10000E-01 HR

      UOS BLOCK B2       MODEL: MIXER        HIERARCHY: B2                        TIME =      1.19
      KODE = 1   NO. TEMP ITER =    1     TEMP =  338.097    
      KPHASE =    2 KODE =    1 T =  338.097     P =  100000.     Q =  0.00000    

      UOS BLOCK B1       MODEL: BATCHOP      HIERARCHY: B2                        TIME =      1.19

      UOS BLOCK B1       MODEL: BATCHOP      HIERARCHY: B2                        TIME =      1.19

      Integrating from 0.21000     to 0.22000     by 0.10000E-01 HR

      UOS BLOCK B2       MODEL: MIXER        HIERARCHY: B2                        TIME =      1.19
      KODE = 1   NO. TEMP ITER =    1     TEMP =  338.097    
      KPHASE =    2 KODE =    1 T =  338.097     P =  100000.     Q =  0.00000    

      UOS BLOCK B1       MODEL: BATCHOP      HIERARCHY: B2                        TIME =      1.19

      UOS BLOCK B1       MODEL: BATCHOP      HIERARCHY: B2                        TIME =      1.19

      Integrating from 0.22000     to 0.23000     by 0.10000E-01 HR

      UOS BLOCK B2       MODEL: MIXER        HIERARCHY: B2                        TIME =      1.19
      KODE = 1   NO. TEMP ITER =    1     TEMP =  338.097    
      KPHASE =    2 KODE =    1 T =  338.097     P =  100000.     Q =  0.00000    

      UOS BLOCK B1       MODEL: BATCHOP      HIERARCHY: B2                        TIME =      1.19

      UOS BLOCK B1       MODEL: BATCHOP      HIERARCHY: B2                        TIME =      1.19

      Integrating from 0.23000     to 0.24000     by 0.10000E-01 HR

      UOS BLOCK B2       MODEL: MIXER        HIERARCHY: B2                        TIME =      1.19
      KODE = 1   NO. TEMP ITER =    1     TEMP =  338.097    
      KPHASE =    2 KODE =    1 T =  338.097     P =  100000.     Q =  0.00000    

      UOS BLOCK B1       MODEL: BATCHOP      HIERARCHY: B2                        TIME =      1.19

      UOS BLOCK B1       MODEL: BATCHOP      HIERARCHY: B2                        TIME =      1.20

      Integrating from 0.24000     to 0.25000     by 0.10000E-01 HR

      UOS BLOCK B2       MODEL: MIXER        HIERARCHY: B2                        TIME =      1.20
      KODE = 1   NO. TEMP ITER =    1     TEMP =  338.097    
      KPHASE =    2 KODE =    1 T =  338.097     P =  100000.     Q =  0.00000    

      UOS BLOCK B1       MODEL: BATCHOP      HIERARCHY: B2                        TIME =      1.20

      UOS BLOCK B1       MODEL: BATCHOP      HIERARCHY: B2                        TIME =      1.29

      Integrating from 0.25000     to 0.26000     by 0.10000E-01 HR

      UOS BLOCK B2       MODEL: MIXER        HIERARCHY: B2                        TIME =      1.36
      KODE = 1   NO. TEMP ITER =    1     TEMP =  338.097    
      KPHASE =    2 KODE =    1 T =  338.097     P =  100000.     Q =  0.00000    

      UOS BLOCK B1       MODEL: BATCHOP      HIERARCHY: B2                        TIME =      1.36

      UOS BLOCK B1       MODEL: BATCHOP      HIERARCHY: B2                        TIME =      1.36

      Integrating from 0.26000     to 0.27000     by 0.10000E-01 HR

      UOS BLOCK B2       MODEL: MIXER        HIERARCHY: B2                        TIME =      1.36
      KODE = 1   NO. TEMP ITER =    1     TEMP =  338.097    
      KPHASE =    2 KODE =    1 T =  338.097     P =  100000.     Q =  0.00000    

      UOS BLOCK B1       MODEL: BATCHOP      HIERARCHY: B2                        TIME =      1.36

      UOS BLOCK B1       MODEL: BATCHOP      HIERARCHY: B2                        TIME =      1.36

      Integrating from 0.27000     to 0.28000     by 0.10000E-01 HR

      UOS BLOCK B2       MODEL: MIXER        HIERARCHY: B2                        TIME =      1.36
      KODE = 1   NO. TEMP ITER =    1     TEMP =  338.097    
      KPHASE =    2 KODE =    1 T =  338.097     P =  100000.     Q =  0.00000    

      UOS BLOCK B1       MODEL: BATCHOP      HIERARCHY: B2                        TIME =      1.36

      UOS BLOCK B1       MODEL: BATCHOP      HIERARCHY: B2                        TIME =      1.36

      Integrating from 0.28000     to 0.29000     by 0.10000E-01 HR

      UOS BLOCK B2       MODEL: MIXER        HIERARCHY: B2                        TIME =      1.36
      KODE = 1   NO. TEMP ITER =    1     TEMP =  338.097    
      KPHASE =    2 KODE =    1 T =  338.097     P =  100000.     Q =  0.00000    

      UOS BLOCK B1       MODEL: BATCHOP      HIERARCHY: B2                        TIME =      1.36

      UOS BLOCK B1       MODEL: BATCHOP      HIERARCHY: B2                        TIME =      1.36

      Integrating from 0.29000     to 0.30000     by 0.10000E-01 HR

      UOS BLOCK B2       MODEL: MIXER        HIERARCHY: B2                        TIME =      1.36
      KODE = 1   NO. TEMP ITER =    1     TEMP =  338.097    
      KPHASE =    2 KODE =    1 T =  338.097     P =  100000.     Q =  0.00000    

      UOS BLOCK B1       MODEL: BATCHOP      HIERARCHY: B2                        TIME =      1.36

      UOS BLOCK B1       MODEL: BATCHOP      HIERARCHY: B2                        TIME =      1.46

      Integrating from 0.30000     to 0.31000     by 0.10000E-01 HR

      UOS BLOCK B2       MODEL: MIXER        HIERARCHY: B2                        TIME =      1.53
      KODE = 1   NO. TEMP ITER =    1     TEMP =  338.097    
      KPHASE =    2 KODE =    1 T =  338.097     P =  100000.     Q =  0.00000    

      UOS BLOCK B1       MODEL: BATCHOP      HIERARCHY: B2                        TIME =      1.53

      UOS BLOCK B1       MODEL: BATCHOP      HIERARCHY: B2                        TIME =      1.53

      Integrating from 0.31000     to 0.32000     by 0.10000E-01 HR

      UOS BLOCK B2       MODEL: MIXER        HIERARCHY: B2                        TIME =      1.53
      KODE = 1   NO. TEMP ITER =    1     TEMP =  338.097    
      KPHASE =    2 KODE =    1 T =  338.097     P =  100000.     Q =  0.00000    

      UOS BLOCK B1       MODEL: BATCHOP      HIERARCHY: B2                        TIME =      1.53

      UOS BLOCK B1       MODEL: BATCHOP      HIERARCHY: B2                        TIME =      1.53

      Integrating from 0.32000     to 0.33000     by 0.10000E-01 HR

      UOS BLOCK B2       MODEL: MIXER        HIERARCHY: B2                        TIME =      1.54
      KODE = 1   NO. TEMP ITER =    1     TEMP =  338.097    
      KPHASE =    2 KODE =    1 T =  338.097     P =  100000.     Q =  0.00000    

      UOS BLOCK B1       MODEL: BATCHOP      HIERARCHY: B2                        TIME =      1.54

      UOS BLOCK B1       MODEL: BATCHOP      HIERARCHY: B2                        TIME =      1.54

      Integrating from 0.33000     to 0.34000     by 0.10000E-01 HR

      UOS BLOCK B2       MODEL: MIXER        HIERARCHY: B2                        TIME =      1.54
      KODE = 1   NO. TEMP ITER =    1     TEMP =  338.097    
      KPHASE =    2 KODE =    1 T =  338.097     P =  100000.     Q =  0.00000    

      UOS BLOCK B1       MODEL: BATCHOP      HIERARCHY: B2                        TIME =      1.54

      UOS BLOCK B1       MODEL: BATCHOP      HIERARCHY: B2                        TIME =      1.54

      Integrating from 0.34000     to 0.35000     by 0.10000E-01 HR

      UOS BLOCK B2       MODEL: MIXER        HIERARCHY: B2                        TIME =      1.54
      KODE = 1   NO. TEMP ITER =    1     TEMP =  338.097    
      KPHASE =    2 KODE =    1 T =  338.097     P =  100000.     Q =  0.00000    

      UOS BLOCK B1       MODEL: BATCHOP      HIERARCHY: B2                        TIME =      1.54

      UOS BLOCK B1       MODEL: BATCHOP      HIERARCHY: B2                        TIME =      1.64

      Integrating from 0.35000     to 0.36000     by 0.10000E-01 HR

      UOS BLOCK B2       MODEL: MIXER        HIERARCHY: B2                        TIME =      1.73
      KODE = 1   NO. TEMP ITER =    1     TEMP =  338.097    
      KPHASE =    2 KODE =    1 T =  338.097     P =  100000.     Q =  0.00000    

      UOS BLOCK B1       MODEL: BATCHOP      HIERARCHY: B2                        TIME =      1.73

      UOS BLOCK B1       MODEL: BATCHOP      HIERARCHY: B2                        TIME =      1.73

      Integrating from 0.36000     to 0.37000     by 0.10000E-01 HR

      UOS BLOCK B2       MODEL: MIXER        HIERARCHY: B2                        TIME =      1.73
      KODE = 1   NO. TEMP ITER =    1     TEMP =  338.097    
      KPHASE =    2 KODE =    1 T =  338.097     P =  100000.     Q =  0.00000    

      UOS BLOCK B1       MODEL: BATCHOP      HIERARCHY: B2                        TIME =      1.74

      UOS BLOCK B1       MODEL: BATCHOP      HIERARCHY: B2                        TIME =      1.74

      Integrating from 0.37000     to 0.38000     by 0.10000E-01 HR

      UOS BLOCK B2       MODEL: MIXER        HIERARCHY: B2                        TIME =      1.74
      KODE = 1   NO. TEMP ITER =    1     TEMP =  338.097    
      KPHASE =    2 KODE =    1 T =  338.097     P =  100000.     Q =  0.00000    

      UOS BLOCK B1       MODEL: BATCHOP      HIERARCHY: B2                        TIME =      1.74

      UOS BLOCK B1       MODEL: BATCHOP      HIERARCHY: B2                        TIME =      1.74

      Integrating from 0.38000     to 0.39000     by 0.10000E-01 HR

      UOS BLOCK B2       MODEL: MIXER        HIERARCHY: B2                        TIME =      1.74
      KODE = 1   NO. TEMP ITER =    1     TEMP =  338.097    
      KPHASE =    2 KODE =    1 T =  338.097     P =  100000.     Q =  0.00000    

      UOS BLOCK B1       MODEL: BATCHOP      HIERARCHY: B2                        TIME =      1.74

      UOS BLOCK B1       MODEL: BATCHOP      HIERARCHY: B2                        TIME =      1.74

      Integrating from 0.39000     to 0.40000     by 0.10000E-01 HR

      UOS BLOCK B2       MODEL: MIXER        HIERARCHY: B2                        TIME =      1.74
      KODE = 1   NO. TEMP ITER =    1     TEMP =  338.097    
      KPHASE =    2 KODE =    1 T =  338.097     P =  100000.     Q =  0.00000    

      UOS BLOCK B1       MODEL: BATCHOP      HIERARCHY: B2                        TIME =      1.74

      UOS BLOCK B1       MODEL: BATCHOP      HIERARCHY: B2                        TIME =      1.82

      Integrating from 0.40000     to 0.41000     by 0.10000E-01 HR

      UOS BLOCK B2       MODEL: MIXER        HIERARCHY: B2                        TIME =      1.90
      KODE = 1   NO. TEMP ITER =    1     TEMP =  338.097    
      KPHASE =    2 KODE =    1 T =  338.097     P =  100000.     Q =  0.00000    

      UOS BLOCK B1       MODEL: BATCHOP      HIERARCHY: B2                        TIME =      1.90

      UOS BLOCK B1       MODEL: BATCHOP      HIERARCHY: B2                        TIME =      1.90

      Integrating from 0.41000     to 0.42000     by 0.10000E-01 HR

      UOS BLOCK B2       MODEL: MIXER        HIERARCHY: B2                        TIME =      1.90
      KODE = 1   NO. TEMP ITER =    1     TEMP =  338.097    
      KPHASE =    2 KODE =    1 T =  338.097     P =  100000.     Q =  0.00000    

      UOS BLOCK B1       MODEL: BATCHOP      HIERARCHY: B2                        TIME =      1.90

      UOS BLOCK B1       MODEL: BATCHOP      HIERARCHY: B2                        TIME =      1.90

      Integrating from 0.42000     to 0.43000     by 0.10000E-01 HR

      UOS BLOCK B2       MODEL: MIXER        HIERARCHY: B2                        TIME =      1.90
      KODE = 1   NO. TEMP ITER =    1     TEMP =  338.097    
      KPHASE =    2 KODE =    1 T =  338.097     P =  100000.     Q =  0.00000    

      UOS BLOCK B1       MODEL: BATCHOP      HIERARCHY: B2                        TIME =      1.90

      UOS BLOCK B1       MODEL: BATCHOP      HIERARCHY: B2                        TIME =      1.90

      Integrating from 0.43000     to 0.44000     by 0.10000E-01 HR

      UOS BLOCK B2       MODEL: MIXER        HIERARCHY: B2                        TIME =      1.90
      KODE = 1   NO. TEMP ITER =    1     TEMP =  338.097    
      KPHASE =    2 KODE =    1 T =  338.097     P =  100000.     Q =  0.00000    

      UOS BLOCK B1       MODEL: BATCHOP      HIERARCHY: B2                        TIME =      1.91

      UOS BLOCK B1       MODEL: BATCHOP      HIERARCHY: B2                        TIME =      1.91

      Integrating from 0.44000     to 0.45000     by 0.10000E-01 HR

      UOS BLOCK B2       MODEL: MIXER        HIERARCHY: B2                        TIME =      1.91
      KODE = 1   NO. TEMP ITER =    1     TEMP =  338.097    
      KPHASE =    2 KODE =    1 T =  338.097     P =  100000.     Q =  0.00000    

      UOS BLOCK B1       MODEL: BATCHOP      HIERARCHY: B2                        TIME =      1.91

      UOS BLOCK B1       MODEL: BATCHOP      HIERARCHY: B2                        TIME =      2.02

      Integrating from 0.45000     to 0.46000     by 0.10000E-01 HR

      UOS BLOCK B2       MODEL: MIXER        HIERARCHY: B2                        TIME =      2.11
      KODE = 1   NO. TEMP ITER =    1     TEMP =  338.097    
      KPHASE =    2 KODE =    1 T =  338.097     P =  100000.     Q =  0.00000    

      UOS BLOCK B1       MODEL: BATCHOP      HIERARCHY: B2                        TIME =      2.11

      UOS BLOCK B1       MODEL: BATCHOP      HIERARCHY: B2                        TIME =      2.11

      Integrating from 0.46000     to 0.47000     by 0.10000E-01 HR

      UOS BLOCK B2       MODEL: MIXER        HIERARCHY: B2                        TIME =      2.11
      KODE = 1   NO. TEMP ITER =    1     TEMP =  338.097    
      KPHASE =    2 KODE =    1 T =  338.097     P =  100000.     Q =  0.00000    

      UOS BLOCK B1       MODEL: BATCHOP      HIERARCHY: B2                        TIME =      2.11

      UOS BLOCK B1       MODEL: BATCHOP      HIERARCHY: B2                        TIME =      2.12

      Integrating from 0.47000     to 0.48000     by 0.10000E-01 HR

      UOS BLOCK B2       MODEL: MIXER        HIERARCHY: B2                        TIME =      2.12
      KODE = 1   NO. TEMP ITER =    1     TEMP =  338.097    
      KPHASE =    2 KODE =    1 T =  338.097     P =  100000.     Q =  0.00000    

      UOS BLOCK B1       MODEL: BATCHOP      HIERARCHY: B2                        TIME =      2.12

      UOS BLOCK B1       MODEL: BATCHOP      HIERARCHY: B2                        TIME =      2.12

      Integrating from 0.48000     to 0.49000     by 0.10000E-01 HR

      UOS BLOCK B2       MODEL: MIXER        HIERARCHY: B2                        TIME =      2.12
      KODE = 1   NO. TEMP ITER =    1     TEMP =  338.097    
      KPHASE =    2 KODE =    1 T =  338.097     P =  100000.     Q =  0.00000    

      UOS BLOCK B1       MODEL: BATCHOP      HIERARCHY: B2                        TIME =      2.12

      UOS BLOCK B1       MODEL: BATCHOP      HIERARCHY: B2                        TIME =      2.12

      Integrating from 0.49000     to 0.50000     by 0.10000E-01 HR

      UOS BLOCK B2       MODEL: MIXER        HIERARCHY: B2                        TIME =      2.12
      KODE = 1   NO. TEMP ITER =    1     TEMP =  338.097    
      KPHASE =    2 KODE =    1 T =  338.097     P =  100000.     Q =  0.00000    

      UOS BLOCK B1       MODEL: BATCHOP      HIERARCHY: B2                        TIME =      2.12

      UOS BLOCK B1       MODEL: BATCHOP      HIERARCHY: B2                        TIME =      2.23

      Integrating from 0.50000     to 0.51000     by 0.10000E-01 HR

      UOS BLOCK B2       MODEL: MIXER        HIERARCHY: B2                        TIME =      2.29
      KODE = 1   NO. TEMP ITER =    1     TEMP =  338.097    
      KPHASE =    2 KODE =    1 T =  338.097     P =  100000.     Q =  0.00000    

      UOS BLOCK B1       MODEL: BATCHOP      HIERARCHY: B2                        TIME =      2.29

      UOS BLOCK B1       MODEL: BATCHOP      HIERARCHY: B2                        TIME =      2.30

      Integrating from 0.51000     to 0.52000     by 0.10000E-01 HR

      UOS BLOCK B2       MODEL: MIXER        HIERARCHY: B2                        TIME =      2.30
      KODE = 1   NO. TEMP ITER =    1     TEMP =  338.097    
      KPHASE =    2 KODE =    1 T =  338.097     P =  100000.     Q =  0.00000    

      UOS BLOCK B1       MODEL: BATCHOP      HIERARCHY: B2                        TIME =      2.30

      UOS BLOCK B1       MODEL: BATCHOP      HIERARCHY: B2                        TIME =      2.30

      Integrating from 0.52000     to 0.53000     by 0.10000E-01 HR

      UOS BLOCK B2       MODEL: MIXER        HIERARCHY: B2                        TIME =      2.30
      KODE = 1   NO. TEMP ITER =    1     TEMP =  338.097    
      KPHASE =    2 KODE =    1 T =  338.097     P =  100000.     Q =  0.00000    

      UOS BLOCK B1       MODEL: BATCHOP      HIERARCHY: B2                        TIME =      2.30

      UOS BLOCK B1       MODEL: BATCHOP      HIERARCHY: B2                        TIME =      2.30

      Integrating from 0.53000     to 0.54000     by 0.10000E-01 HR

      UOS BLOCK B2       MODEL: MIXER        HIERARCHY: B2                        TIME =      2.30
      KODE = 1   NO. TEMP ITER =    1     TEMP =  338.097    
      KPHASE =    2 KODE =    1 T =  338.097     P =  100000.     Q =  0.00000    

      UOS BLOCK B1       MODEL: BATCHOP      HIERARCHY: B2                        TIME =      2.30

      UOS BLOCK B1       MODEL: BATCHOP      HIERARCHY: B2                        TIME =      2.30

      Integrating from 0.54000     to 0.55000     by 0.10000E-01 HR

      UOS BLOCK B2       MODEL: MIXER        HIERARCHY: B2                        TIME =      2.30
      KODE = 1   NO. TEMP ITER =    1     TEMP =  338.097    
      KPHASE =    2 KODE =    1 T =  338.097     P =  100000.     Q =  0.00000    

      UOS BLOCK B1       MODEL: BATCHOP      HIERARCHY: B2                        TIME =      2.30

      UOS BLOCK B1       MODEL: BATCHOP      HIERARCHY: B2                        TIME =      2.41

      Integrating from 0.55000     to 0.56000     by 0.10000E-01 HR

      UOS BLOCK B2       MODEL: MIXER        HIERARCHY: B2                        TIME =      2.48
      KODE = 1   NO. TEMP ITER =    1     TEMP =  338.097    
      KPHASE =    2 KODE =    1 T =  338.097     P =  100000.     Q =  0.00000    

      UOS BLOCK B1       MODEL: BATCHOP      HIERARCHY: B2                        TIME =      2.48

      UOS BLOCK B1       MODEL: BATCHOP      HIERARCHY: B2                        TIME =      2.48

      Integrating from 0.56000     to 0.57000     by 0.10000E-01 HR

      UOS BLOCK B2       MODEL: MIXER        HIERARCHY: B2                        TIME =      2.48
      KODE = 1   NO. TEMP ITER =    1     TEMP =  338.097    
      KPHASE =    2 KODE =    1 T =  338.097     P =  100000.     Q =  0.00000    

      UOS BLOCK B1       MODEL: BATCHOP      HIERARCHY: B2                        TIME =      2.48

      UOS BLOCK B1       MODEL: BATCHOP      HIERARCHY: B2                        TIME =      2.49

      Integrating from 0.57000     to 0.58000     by 0.10000E-01 HR

      UOS BLOCK B2       MODEL: MIXER        HIERARCHY: B2                        TIME =      2.49
      KODE = 1   NO. TEMP ITER =    1     TEMP =  338.097    
      KPHASE =    2 KODE =    1 T =  338.097     P =  100000.     Q =  0.00000    

      UOS BLOCK B1       MODEL: BATCHOP      HIERARCHY: B2                        TIME =      2.49

      UOS BLOCK B1       MODEL: BATCHOP      HIERARCHY: B2                        TIME =      2.49

      Integrating from 0.58000     to 0.59000     by 0.10000E-01 HR

      UOS BLOCK B2       MODEL: MIXER        HIERARCHY: B2                        TIME =      2.49
      KODE = 1   NO. TEMP ITER =    1     TEMP =  338.097    
      KPHASE =    2 KODE =    1 T =  338.097     P =  100000.     Q =  0.00000    

      UOS BLOCK B1       MODEL: BATCHOP      HIERARCHY: B2                        TIME =      2.49

      UOS BLOCK B1       MODEL: BATCHOP      HIERARCHY: B2                        TIME =      2.50

      Integrating from 0.59000     to 0.60000     by 0.10000E-01 HR

      UOS BLOCK B2       MODEL: MIXER        HIERARCHY: B2                        TIME =      2.50
      KODE = 1   NO. TEMP ITER =    1     TEMP =  338.097    
      KPHASE =    2 KODE =    1 T =  338.097     P =  100000.     Q =  0.00000    

      UOS BLOCK B1       MODEL: BATCHOP      HIERARCHY: B2                        TIME =      2.50

      UOS BLOCK B1       MODEL: BATCHOP      HIERARCHY: B2                        TIME =      2.60

      Integrating from 0.60000     to 0.61000     by 0.10000E-01 HR

      UOS BLOCK B2       MODEL: MIXER        HIERARCHY: B2                        TIME =      2.68
      KODE = 1   NO. TEMP ITER =    1     TEMP =  338.097    
      KPHASE =    2 KODE =    1 T =  338.097     P =  100000.     Q =  0.00000    

      UOS BLOCK B1       MODEL: BATCHOP      HIERARCHY: B2                        TIME =      2.69

      UOS BLOCK B1       MODEL: BATCHOP      HIERARCHY: B2                        TIME =      2.69

      Integrating from 0.61000     to 0.62000     by 0.10000E-01 HR

      UOS BLOCK B2       MODEL: MIXER        HIERARCHY: B2                        TIME =      2.69
      KODE = 1   NO. TEMP ITER =    1     TEMP =  338.097    
      KPHASE =    2 KODE =    1 T =  338.097     P =  100000.     Q =  0.00000    

      UOS BLOCK B1       MODEL: BATCHOP      HIERARCHY: B2                        TIME =      2.69

      UOS BLOCK B1       MODEL: BATCHOP      HIERARCHY: B2                        TIME =      2.70

      Integrating from 0.62000     to 0.63000     by 0.10000E-01 HR

      UOS BLOCK B2       MODEL: MIXER        HIERARCHY: B2                        TIME =      2.70
      KODE = 1   NO. TEMP ITER =    1     TEMP =  338.097    
      KPHASE =    2 KODE =    1 T =  338.097     P =  100000.     Q =  0.00000    

      UOS BLOCK B1       MODEL: BATCHOP      HIERARCHY: B2                        TIME =      2.70

      UOS BLOCK B1       MODEL: BATCHOP      HIERARCHY: B2                        TIME =      2.70

      Integrating from 0.63000     to 0.64000     by 0.10000E-01 HR

      UOS BLOCK B2       MODEL: MIXER        HIERARCHY: B2                        TIME =      2.70
      KODE = 1   NO. TEMP ITER =    1     TEMP =  338.097    
      KPHASE =    2 KODE =    1 T =  338.097     P =  100000.     Q =  0.00000    

      UOS BLOCK B1       MODEL: BATCHOP      HIERARCHY: B2                        TIME =      2.70

      UOS BLOCK B1       MODEL: BATCHOP      HIERARCHY: B2                        TIME =      2.70

      Integrating from 0.64000     to 0.65000     by 0.10000E-01 HR

      UOS BLOCK B2       MODEL: MIXER        HIERARCHY: B2                        TIME =      2.70
      KODE = 1   NO. TEMP ITER =    1     TEMP =  338.097    
      KPHASE =    2 KODE =    1 T =  338.097     P =  100000.     Q =  0.00000    

      UOS BLOCK B1       MODEL: BATCHOP      HIERARCHY: B2                        TIME =      2.70

      UOS BLOCK B1       MODEL: BATCHOP      HIERARCHY: B2                        TIME =      2.81

      Integrating from 0.65000     to 0.66000     by 0.10000E-01 HR

      UOS BLOCK B2       MODEL: MIXER        HIERARCHY: B2                        TIME =      2.90
      KODE = 1   NO. TEMP ITER =    1     TEMP =  338.097    
      KPHASE =    2 KODE =    1 T =  338.097     P =  100000.     Q =  0.00000    

      UOS BLOCK B1       MODEL: BATCHOP      HIERARCHY: B2                        TIME =      2.90

      UOS BLOCK B1       MODEL: BATCHOP      HIERARCHY: B2                        TIME =      2.90

      Integrating from 0.66000     to 0.67000     by 0.10000E-01 HR

      UOS BLOCK B2       MODEL: MIXER        HIERARCHY: B2                        TIME =      2.90
      KODE = 1   NO. TEMP ITER =    1     TEMP =  338.097    
      KPHASE =    2 KODE =    1 T =  338.097     P =  100000.     Q =  0.00000    

      UOS BLOCK B1       MODEL: BATCHOP      HIERARCHY: B2                        TIME =      2.90

      UOS BLOCK B1       MODEL: BATCHOP      HIERARCHY: B2                        TIME =      2.91

      Integrating from 0.67000     to 0.68000     by 0.10000E-01 HR

      UOS BLOCK B2       MODEL: MIXER        HIERARCHY: B2                        TIME =      2.91
      KODE = 1   NO. TEMP ITER =    1     TEMP =  338.097    
      KPHASE =    2 KODE =    1 T =  338.097     P =  100000.     Q =  0.00000    

      UOS BLOCK B1       MODEL: BATCHOP      HIERARCHY: B2                        TIME =      2.91

      UOS BLOCK B1       MODEL: BATCHOP      HIERARCHY: B2                        TIME =      2.91

      Integrating from 0.68000     to 0.69000     by 0.10000E-01 HR

      UOS BLOCK B2       MODEL: MIXER        HIERARCHY: B2                        TIME =      2.91
      KODE = 1   NO. TEMP ITER =    1     TEMP =  338.097    
      KPHASE =    2 KODE =    1 T =  338.097     P =  100000.     Q =  0.00000    

      UOS BLOCK B1       MODEL: BATCHOP      HIERARCHY: B2                        TIME =      2.91

      UOS BLOCK B1       MODEL: BATCHOP      HIERARCHY: B2                        TIME =      2.91

      Integrating from 0.69000     to 0.70000     by 0.10000E-01 HR

      UOS BLOCK B2       MODEL: MIXER        HIERARCHY: B2                        TIME =      2.92
      KODE = 1   NO. TEMP ITER =    1     TEMP =  338.097    
      KPHASE =    2 KODE =    1 T =  338.097     P =  100000.     Q =  0.00000    

      UOS BLOCK B1       MODEL: BATCHOP      HIERARCHY: B2                        TIME =      2.92

      UOS BLOCK B1       MODEL: BATCHOP      HIERARCHY: B2                        TIME =      3.00

      Integrating from 0.70000     to 0.71000     by 0.10000E-01 HR

      UOS BLOCK B2       MODEL: MIXER        HIERARCHY: B2                        TIME =      3.07
      KODE = 1   NO. TEMP ITER =    1     TEMP =  338.097    
      KPHASE =    2 KODE =    1 T =  338.097     P =  100000.     Q =  0.00000    

      UOS BLOCK B1       MODEL: BATCHOP      HIERARCHY: B2                        TIME =      3.07

      UOS BLOCK B1       MODEL: BATCHOP      HIERARCHY: B2                        TIME =      3.08

      Integrating from 0.71000     to 0.72000     by 0.10000E-01 HR

      UOS BLOCK B2       MODEL: MIXER        HIERARCHY: B2                        TIME =      3.08
      KODE = 1   NO. TEMP ITER =    1     TEMP =  338.097    
      KPHASE =    2 KODE =    1 T =  338.097     P =  100000.     Q =  0.00000    

      UOS BLOCK B1       MODEL: BATCHOP      HIERARCHY: B2                        TIME =      3.08

      UOS BLOCK B1       MODEL: BATCHOP      HIERARCHY: B2                        TIME =      3.08

      Integrating from 0.72000     to 0.73000     by 0.10000E-01 HR

      UOS BLOCK B2       MODEL: MIXER        HIERARCHY: B2                        TIME =      3.08
      KODE = 1   NO. TEMP ITER =    1     TEMP =  338.097    
      KPHASE =    2 KODE =    1 T =  338.097     P =  100000.     Q =  0.00000    

      UOS BLOCK B1       MODEL: BATCHOP      HIERARCHY: B2                        TIME =      3.08

      UOS BLOCK B1       MODEL: BATCHOP      HIERARCHY: B2                        TIME =      3.08

      Integrating from 0.73000     to 0.74000     by 0.10000E-01 HR

      UOS BLOCK B2       MODEL: MIXER        HIERARCHY: B2                        TIME =      3.08
      KODE = 1   NO. TEMP ITER =    1     TEMP =  338.097    
      KPHASE =    2 KODE =    1 T =  338.097     P =  100000.     Q =  0.00000    

      UOS BLOCK B1       MODEL: BATCHOP      HIERARCHY: B2                        TIME =      3.08

      UOS BLOCK B1       MODEL: BATCHOP      HIERARCHY: B2                        TIME =      3.08

      Integrating from 0.74000     to 0.75000     by 0.10000E-01 HR

      UOS BLOCK B2       MODEL: MIXER        HIERARCHY: B2                        TIME =      3.08
      KODE = 1   NO. TEMP ITER =    1     TEMP =  338.097    
      KPHASE =    2 KODE =    1 T =  338.097     P =  100000.     Q =  0.00000    

      UOS BLOCK B1       MODEL: BATCHOP      HIERARCHY: B2                        TIME =      3.08

      UOS BLOCK B1       MODEL: BATCHOP      HIERARCHY: B2                        TIME =      3.18

      Integrating from 0.75000     to 0.76000     by 0.10000E-01 HR

      UOS BLOCK B2       MODEL: MIXER        HIERARCHY: B2                        TIME =      3.26
      KODE = 1   NO. TEMP ITER =    1     TEMP =  338.097    
      KPHASE =    2 KODE =    1 T =  338.097     P =  100000.     Q =  0.00000    

      UOS BLOCK B1       MODEL: BATCHOP      HIERARCHY: B2                        TIME =      3.26

      UOS BLOCK B1       MODEL: BATCHOP      HIERARCHY: B2                        TIME =      3.26

      Integrating from 0.76000     to 0.77000     by 0.10000E-01 HR

      UOS BLOCK B2       MODEL: MIXER        HIERARCHY: B2                        TIME =      3.26
      KODE = 1   NO. TEMP ITER =    1     TEMP =  338.097    
      KPHASE =    2 KODE =    1 T =  338.097     P =  100000.     Q =  0.00000    

      UOS BLOCK B1       MODEL: BATCHOP      HIERARCHY: B2                        TIME =      3.26

      UOS BLOCK B1       MODEL: BATCHOP      HIERARCHY: B2                        TIME =      3.26

      Integrating from 0.77000     to 0.78000     by 0.10000E-01 HR

      UOS BLOCK B2       MODEL: MIXER        HIERARCHY: B2                        TIME =      3.26
      KODE = 1   NO. TEMP ITER =    1     TEMP =  338.097    
      KPHASE =    2 KODE =    1 T =  338.097     P =  100000.     Q =  0.00000    

      UOS BLOCK B1       MODEL: BATCHOP      HIERARCHY: B2                        TIME =      3.26

      UOS BLOCK B1       MODEL: BATCHOP      HIERARCHY: B2                        TIME =      3.26

      Integrating from 0.78000     to 0.79000     by 0.10000E-01 HR

      UOS BLOCK B2       MODEL: MIXER        HIERARCHY: B2                        TIME =      3.26
      KODE = 1   NO. TEMP ITER =    1     TEMP =  338.097    
      KPHASE =    2 KODE =    1 T =  338.097     P =  100000.     Q =  0.00000    

      UOS BLOCK B1       MODEL: BATCHOP      HIERARCHY: B2                        TIME =      3.26

      UOS BLOCK B1       MODEL: BATCHOP      HIERARCHY: B2                        TIME =      3.27

      Integrating from 0.79000     to 0.80000     by 0.10000E-01 HR

      UOS BLOCK B2       MODEL: MIXER        HIERARCHY: B2                        TIME =      3.27
      KODE = 1   NO. TEMP ITER =    1     TEMP =  338.097    
      KPHASE =    2 KODE =    1 T =  338.097     P =  100000.     Q =  0.00000    

      UOS BLOCK B1       MODEL: BATCHOP      HIERARCHY: B2                        TIME =      3.27

      UOS BLOCK B1       MODEL: BATCHOP      HIERARCHY: B2                        TIME =      3.38

      Integrating from 0.80000     to 0.81000     by 0.10000E-01 HR

      UOS BLOCK B2       MODEL: MIXER        HIERARCHY: B2                        TIME =      3.44
      KODE = 1   NO. TEMP ITER =    1     TEMP =  338.097    
      KPHASE =    2 KODE =    1 T =  338.097     P =  100000.     Q =  0.00000    

      UOS BLOCK B1       MODEL: BATCHOP      HIERARCHY: B2                        TIME =      3.44

      UOS BLOCK B1       MODEL: BATCHOP      HIERARCHY: B2                        TIME =      3.44

      Integrating from 0.81000     to 0.82000     by 0.10000E-01 HR

      UOS BLOCK B2       MODEL: MIXER        HIERARCHY: B2                        TIME =      3.44
      KODE = 1   NO. TEMP ITER =    1     TEMP =  338.097    
[...]
      KODE = 1  NTRIAL =   5  T = 365.6716  P =  100000.      V = 0.285916      Q =  0.00000    
      KODE = 1  NTRIAL =   5  T = 364.4467  P =  100000.      V = 0.268921      Q =  0.00000    
      KODE = 1  NTRIAL =   5  T = 363.2905  P =  100000.      V = 0.251297      Q =  0.00000    
      KODE = 1  NTRIAL =   5  T = 362.2004  P =  100000.      V = 0.233071      Q =  0.00000    
      KODE = 1  NTRIAL =   5  T = 361.1732  P =  100000.      V = 0.214274      Q =  0.00000    
      KODE = 1  NTRIAL =   5  T = 360.2059  P =  100000.      V = 0.194936      Q =  0.00000    
      KODE = 1  NTRIAL =   5  T = 359.2954  P =  100000.      V = 0.175086      Q =  0.00000    
      KODE = 1  NTRIAL =   5  T = 358.4383  P =  100000.      V = 0.154756      Q =  0.00000    
      KODE = 1  NTRIAL =   5  T = 357.6317  P =  100000.      V = 0.133975      Q =  0.00000    
      KODE = 1  NTRIAL =   5  T = 356.8723  P =  100000.      V = 0.112771      Q =  0.00000    
      KODE = 1  NTRIAL =   5  T = 356.1572  P =  100000.      V = 9.117326E-02  Q =  0.00000    
      KODE = 1  NTRIAL =   5  T = 355.4835  P =  100000.      V = 6.920680E-02  Q =  0.00000    
      KODE = 1  NTRIAL =   5  T = 354.8486  P =  100000.      V = 4.689699E-02  Q =  0.00000    
      KODE = 1  NTRIAL =   5  T = 354.2498  P =  100000.      V = 2.426735E-02  Q =  0.00000    

      BEGIN HOT-TQCURVE  INLET   
      KODE = 1  NTRIAL =   7  T = 617.6032  P =  100000.      V =  0.00000      Q =  0.00000    
      NO. TEMP ITER =    4     TEMP =  615.042    
      KODE = 1  NTRIAL =   2  T = 615.0423  P =  100000.      V =  0.00000      Q =  0.00000    
      NO. TEMP ITER =    5     TEMP =  612.471    
      KODE = 1  NTRIAL =   2  T = 612.4709  P =  100000.      V =  0.00000      Q =  0.00000    
      NO. TEMP ITER =    5     TEMP =  609.889    
      KODE = 1  NTRIAL =   2  T = 609.8889  P =  100000.      V =  0.00000      Q =  0.00000    
      NO. TEMP ITER =    5     TEMP =  607.296    
      KODE = 1  NTRIAL =   2  T = 607.2965  P =  100000.      V =  0.00000      Q =  0.00000    
      NO. TEMP ITER =    5     TEMP =  604.694    
      KODE = 1  NTRIAL =   2  T = 604.6936  P =  100000.      V =  0.00000      Q =  0.00000    
      NO. TEMP ITER =    5     TEMP =  602.080    
      KODE = 1  NTRIAL =   2  T = 602.0803  P =  100000.      V =  0.00000      Q =  0.00000    
      NO. TEMP ITER =    5     TEMP =  599.457    
      KODE = 1  NTRIAL =   2  T = 599.4567  P =  100000.      V =  0.00000      Q =  0.00000    
      NO. TEMP ITER =    5     TEMP =  596.823    
      KODE = 1  NTRIAL =   2  T = 596.8227  P =  100000.      V =  0.00000      Q =  0.00000    
      NO. TEMP ITER =    5     TEMP =  594.178    
      KODE = 1  NTRIAL =   2  T = 594.1784  P =  100000.      V =  0.00000      Q =  0.00000    
      NO. TEMP ITER =    5     TEMP =  591.524    
      KODE = 1  NTRIAL =   2  T = 591.5237  P =  100000.      V =  0.00000      Q =  0.00000    
      NO. TEMP ITER =    4     TEMP =  588.859    
      KODE = 1  NTRIAL =   2  T = 588.8587  P =  100000.      V =  0.00000      Q =  0.00000    
      NO. TEMP ITER =    4     TEMP =  586.183    
      KODE = 1  NTRIAL =   2  T = 586.1835  P =  100000.      V =  0.00000      Q =  0.00000    
      NO. TEMP ITER =    4     TEMP =  583.498    
      KODE = 1  NTRIAL =   2  T = 583.4979  P =  100000.      V =  0.00000      Q =  0.00000    
      NO. TEMP ITER =    5     TEMP =  580.802    
      KODE = 1  NTRIAL =   2  T = 580.8021  P =  100000.      V =  0.00000      Q =  0.00000    
      NO. TEMP ITER =    5     TEMP =  578.096    
      KODE = 1  NTRIAL =   2  T = 578.0960  P =  100000.      V =  0.00000      Q =  0.00000    
      NO. TEMP ITER =    5     TEMP =  575.380    
      KODE = 1  NTRIAL =   2  T = 575.3795  P =  100000.      V =  0.00000      Q =  0.00000    
      NO. TEMP ITER =    5     TEMP =  572.653    
      KODE = 1  NTRIAL =   2  T = 572.6528  P =  100000.      V =  0.00000      Q =  0.00000    
      NO. TEMP ITER =    5     TEMP =  569.916    
      KODE = 1  NTRIAL =   2  T = 569.9158  P =  100000.      V =  0.00000      Q =  0.00000    
      NO. TEMP ITER =    5     TEMP =  567.168    
      KODE = 1  NTRIAL =   2  T = 567.1685  P =  100000.      V =  0.00000      Q =  0.00000    
      NO. TEMP ITER =    5     TEMP =  564.411    
      KODE = 1  NTRIAL =   2  T = 564.4108  P =  100000.      V =  0.00000      Q =  0.00000    
      NO. TEMP ITER =    5     TEMP =  561.643    
      KODE = 1  NTRIAL =   2  T = 561.6428  P =  100000.      V =  0.00000      Q =  0.00000    

      BEGIN COLD-TQCURVE INLET   

      BEGIN HOT-TQCURVE  INLET   
      END HEATX TQ-CURVE CALCULATIONS FOR BLOCK HEATX1  

      GENERATING RESULTS FOR UOS BLOCK HEATX2   MODEL: HEATX                      TIME =    988.34
      SPECIFICATION: COLD OUTLET TEMP      413.15    
      FLOW TYPE:     COUNTERCURRENT  
      HOT:  TIN=  594.64  PIN=0.10000E+06   TOUT=  469.37  POUT=0.10000E+06
      COLD: TIN=  337.62  PIN=0.10000E+06   TOUT=  413.15  POUT=0.10000E+06
      AREA=0.13360           DUTY= 17635.           FT=1.00000

      BEGIN HEATX TQ-CURVE CALCULATIONS FOR BLOCK HEATX2  

      BEGIN COLD-TQCURVE INLET   
      NO. TEMP ITER =    4     TEMP =  413.150    
      KODE = 1  NTRIAL =   3  T = 413.1500  P =  100000.      V =  0.00000      Q =  0.00000    
      NO. TEMP ITER =    4     TEMP =  409.639    
      KODE = 1  NTRIAL =   3  T = 409.6393  P =  100000.      V =  0.00000      Q =  0.00000    
      NO. TEMP ITER =    4     TEMP =  406.120    
      KODE = 1  NTRIAL =   3  T = 406.1202  P =  100000.      V =  0.00000      Q =  0.00000    
      NO. TEMP ITER =    4     TEMP =  402.593    
      KODE = 1  NTRIAL =   3  T = 402.5926  P =  100000.      V =  0.00000      Q =  0.00000    
      NO. TEMP ITER =    4     TEMP =  399.057    
      KODE = 1  NTRIAL =   3  T = 399.0565  P =  100000.      V =  0.00000      Q =  0.00000    
      NO. TEMP ITER =    5     TEMP =  395.512    
      KODE = 1  NTRIAL =   3  T = 395.5119  P =  100000.      V =  0.00000      Q =  0.00000    
      NO. TEMP ITER =    5     TEMP =  391.959    
      KODE = 1  NTRIAL =   3  T = 391.9588  P =  100000.      V =  0.00000      Q =  0.00000    
      NO. TEMP ITER =    5     TEMP =  388.397    
      KODE = 1  NTRIAL =   3  T = 388.3971  P =  100000.      V =  0.00000      Q =  0.00000    
      NO. TEMP ITER =    5     TEMP =  384.827    
      KODE = 1  NTRIAL =   3  T = 384.8267  P =  100000.      V =  0.00000      Q =  0.00000    
      NO. TEMP ITER =    5     TEMP =  381.248    
      KODE = 1  NTRIAL =   3  T = 381.2477  P =  100000.      V =  0.00000      Q =  0.00000    
      NO. TEMP ITER =    5     TEMP =  377.660    
      KODE = 1  NTRIAL =   3  T = 377.6600  P =  100000.      V =  0.00000      Q =  0.00000    
      NO. TEMP ITER =    5     TEMP =  374.064    
      KODE = 1  NTRIAL =   3  T = 374.0637  P =  100000.      V =  0.00000      Q =  0.00000    
      NO. TEMP ITER =    5     TEMP =  370.459    
      KODE = 1  NTRIAL =   3  T = 370.4586  P =  100000.      V =  0.00000      Q =  0.00000    
      NO. TEMP ITER =    5     TEMP =  366.845    
      KODE = 1  NTRIAL =   3  T = 366.8448  P =  100000.      V =  0.00000      Q =  0.00000    
      NO. TEMP ITER =    5     TEMP =  363.222    
      KODE = 1  NTRIAL =   3  T = 363.2222  P =  100000.      V =  0.00000      Q =  0.00000    
      NO. TEMP ITER =    5     TEMP =  359.591    
      KODE = 1  NTRIAL =   3  T = 359.5909  P =  100000.      V =  0.00000      Q =  0.00000    
      NO. TEMP ITER =    5     TEMP =  355.951    
      KODE = 1  NTRIAL =   3  T = 355.9509  P =  100000.      V =  0.00000      Q =  0.00000    
      NO. TEMP ITER =    5     TEMP =  352.302    
      KODE = 1  NTRIAL =   3  T = 352.3020  P =  100000.      V =  0.00000      Q =  0.00000    
      NO. TEMP ITER =    5     TEMP =  348.644    
      KODE = 1  NTRIAL =   3  T = 348.6445  P =  100000.      V =  0.00000      Q =  0.00000    
      NO. TEMP ITER =    5     TEMP =  344.978    
      KODE = 1  NTRIAL =   3  T = 344.9782  P =  100000.      V =  0.00000      Q =  0.00000    
      NO. TEMP ITER =    5     TEMP =  341.303    
      KODE = 1  NTRIAL =   3  T = 341.3032  P =  100000.      V =  0.00000      Q =  0.00000    
      NO. TEMP ITER =    5     TEMP =  337.620    
      KODE = 1  NTRIAL =   3  T = 337.6195  P =  100000.      V =  0.00000      Q =  0.00000    

      BEGIN HOT-TQCURVE  INLET   
      KODE = 1  NTRIAL =   5  T = 594.6353  P =  100000.      V =  0.00000      Q =  0.00000    
      NO. TEMP ITER =    4     TEMP =  588.978    
      KODE = 1  NTRIAL =   2  T = 588.9778  P =  100000.      V =  0.00000      Q =  0.00000    
      NO. TEMP ITER =    5     TEMP =  583.289    
      KODE = 1  NTRIAL =   2  T = 583.2893  P =  100000.      V =  0.00000      Q =  0.00000    
      NO. TEMP ITER =    5     TEMP =  577.570    
      KODE = 1  NTRIAL =   2  T = 577.5698  P =  100000.      V =  0.00000      Q =  0.00000    
      NO. TEMP ITER =    4     TEMP =  571.819    
      KODE = 1  NTRIAL =   2  T = 571.8194  P =  100000.      V =  0.00000      Q =  0.00000    
      NO. TEMP ITER =    5     TEMP =  566.038    
      KODE = 1  NTRIAL =   2  T = 566.0382  P =  100000.      V =  0.00000      Q =  0.00000    
      NO. TEMP ITER =    5     TEMP =  560.226    
      KODE = 1  NTRIAL =   3  T = 560.2264  P =  100000.      V =  0.00000      Q =  0.00000    
      NO. TEMP ITER =    5     TEMP =  554.384    
      KODE = 1  NTRIAL =   3  T = 554.3839  P =  100000.      V =  0.00000      Q =  0.00000    
      NO. TEMP ITER =    5     TEMP =  548.511    
      KODE = 1  NTRIAL =   3  T = 548.5109  P =  100000.      V =  0.00000      Q =  0.00000    
      NO. TEMP ITER =    5     TEMP =  542.607    
      KODE = 1  NTRIAL =   3  T = 542.6074  P =  100000.      V =  0.00000      Q =  0.00000    
      NO. TEMP ITER =    5     TEMP =  536.673    
      KODE = 1  NTRIAL =   3  T = 536.6733  P =  100000.      V =  0.00000      Q =  0.00000    
      NO. TEMP ITER =    5     TEMP =  530.709    
      KODE = 1  NTRIAL =   3  T = 530.7087  P =  100000.      V =  0.00000      Q =  0.00000    
      NO. TEMP ITER =    5     TEMP =  524.714    
      KODE = 1  NTRIAL =   3  T = 524.7136  P =  100000.      V =  0.00000      Q =  0.00000    
      NO. TEMP ITER =    5     TEMP =  518.688    
      KODE = 1  NTRIAL =   3  T = 518.6879  P =  100000.      V =  0.00000      Q =  0.00000    
      NO. TEMP ITER =    5     TEMP =  512.632    
      KODE = 1  NTRIAL =   3  T = 512.6316  P =  100000.      V =  0.00000      Q =  0.00000    
      NO. TEMP ITER =    5     TEMP =  506.545    
      KODE = 1  NTRIAL =   3  T = 506.5446  P =  100000.      V =  0.00000      Q =  0.00000    
      NO. TEMP ITER =    5     TEMP =  500.427    
      KODE = 1  NTRIAL =   3  T = 500.4268  P =  100000.      V =  0.00000      Q =  0.00000    
      NO. TEMP ITER =    5     TEMP =  494.278    
      KODE = 1  NTRIAL =   3  T = 494.2781  P =  100000.      V =  0.00000      Q =  0.00000    
      NO. TEMP ITER =    5     TEMP =  488.098    
      KODE = 1  NTRIAL =   3  T = 488.0984  P =  100000.      V =  0.00000      Q =  0.00000    
      NO. TEMP ITER =    5     TEMP =  481.888    
      KODE = 1  NTRIAL =   3  T = 481.8877  P =  100000.      V =  0.00000      Q =  0.00000    
      NO. TEMP ITER =    5     TEMP =  475.646    
      KODE = 1  NTRIAL =   3  T = 475.6457  P =  100000.      V =  0.00000      Q =  0.00000    
      NO. TEMP ITER =    5     TEMP =  469.372    
      KODE = 1  NTRIAL =   3  T = 469.3723  P =  100000.      V =  0.00000      Q =  0.00000    

      BEGIN COLD-TQCURVE INLET   

      BEGIN HOT-TQCURVE  INLET   
      END HEATX TQ-CURVE CALCULATIONS FOR BLOCK HEATX2  

      GENERATING RESULTS FOR UOS BLOCK B16      MODEL: HEATX                      TIME =    988.37

  *   WARNING WHILE GENERATING RESULTS FOR UNIT OPERATIONS BLOCK: "B16" (MODEL: 
      "HEATX")                                                 (UHE02I.9)       
      CALCULATED FEED TEMPERATURE FOR THE HOT SIDE (5.1486609D+02)              
      IS INCONSISTENT WITH ITS INLET STREAM VALUE (5.1605605D+02)               
      PROBABLE CAUSE: LOOSE FLASH TOLERANCE, OR UPSTREAM BLOCK WITH DIFFERENT   
      PHASE SPECIFICATIONS OR PROPERTY METHOD. THE CALCULATED VALUE WILL BE     
      USED IN CALCULATIONS.                                                     
      SPECIFICATION: HOT OUTLET TEMP       333.15    
      FLOW TYPE:     COUNTERCURRENT  
      HOT:  TIN=  514.87  PIN=0.10000E+06   TOUT=  333.15  POUT=0.10000E+06
      COLD: TIN=  298.15  PIN=0.10000E+06   TOUT=  306.11  POUT=0.10000E+06
      AREA=0.84481           DUTY= 66507.           FT=1.00000

      BEGIN HEATX TQ-CURVE CALCULATIONS FOR BLOCK B16     

      BEGIN COLD-TQCURVE INLET   
      NO. TEMP ITER =    5     TEMP =  306.112    
      KODE = 1  NTRIAL =   2  T = 306.1122  P =  100000.      V =  0.00000      Q =  0.00000    
      NO. TEMP ITER =    5     TEMP =  305.733    
      KODE = 1  NTRIAL =   2  T = 305.7330  P =  100000.      V =  0.00000      Q =  0.00000    
      NO. TEMP ITER =    5     TEMP =  305.354    
      KODE = 1  NTRIAL =   2  T = 305.3538  P =  100000.      V =  0.00000      Q =  0.00000    
      NO. TEMP ITER =    5     TEMP =  304.975    
      KODE = 1  NTRIAL =   2  T = 304.9746  P =  100000.      V =  0.00000      Q =  0.00000    
      NO. TEMP ITER =    5     TEMP =  304.595    
      KODE = 1  NTRIAL =   2  T = 304.5954  P =  100000.      V =  0.00000      Q =  0.00000    
      NO. TEMP ITER =    5     TEMP =  304.216    
      KODE = 1  NTRIAL =   2  T = 304.2162  P =  100000.      V =  0.00000      Q =  0.00000    
      NO. TEMP ITER =    5     TEMP =  303.837    
      KODE = 1  NTRIAL =   2  T = 303.8370  P =  100000.      V =  0.00000      Q =  0.00000    
      NO. TEMP ITER =    5     TEMP =  303.458    
      KODE = 1  NTRIAL =   2  T = 303.4578  P =  100000.      V =  0.00000      Q =  0.00000    
      NO. TEMP ITER =    5     TEMP =  303.079    
      KODE = 1  NTRIAL =   2  T = 303.0786  P =  100000.      V =  0.00000      Q =  0.00000    
      NO. TEMP ITER =    5     TEMP =  302.699    
      KODE = 1  NTRIAL =   2  T = 302.6995  P =  100000.      V =  0.00000      Q =  0.00000    
      NO. TEMP ITER =    5     TEMP =  302.320    
      KODE = 1  NTRIAL =   2  T = 302.3203  P =  100000.      V =  0.00000      Q =  0.00000    
      NO. TEMP ITER =    5     TEMP =  301.941    
      KODE = 1  NTRIAL =   2  T = 301.9411  P =  100000.      V =  0.00000      Q =  0.00000    
      NO. TEMP ITER =    5     TEMP =  301.562    
      KODE = 1  NTRIAL =   2  T = 301.5620  P =  100000.      V =  0.00000      Q =  0.00000    
      NO. TEMP ITER =    5     TEMP =  301.183    
      KODE = 1  NTRIAL =   2  T = 301.1828  P =  100000.      V =  0.00000      Q =  0.00000    
      NO. TEMP ITER =    5     TEMP =  300.804    
      KODE = 1  NTRIAL =   2  T = 300.8037  P =  100000.      V =  0.00000      Q =  0.00000    
      NO. TEMP ITER =    5     TEMP =  300.425    
      KODE = 1  NTRIAL =   2  T = 300.4246  P =  100000.      V =  0.00000      Q =  0.00000    
      NO. TEMP ITER =    5     TEMP =  300.045    
      KODE = 1  NTRIAL =   2  T = 300.0454  P =  100000.      V =  0.00000      Q =  0.00000    
      NO. TEMP ITER =    5     TEMP =  299.666    
      KODE = 1  NTRIAL =   2  T = 299.6663  P =  100000.      V =  0.00000      Q =  0.00000    
      NO. TEMP ITER =    5     TEMP =  299.287    
      KODE = 1  NTRIAL =   2  T = 299.2872  P =  100000.      V =  0.00000      Q =  0.00000    
      NO. TEMP ITER =    5     TEMP =  298.908    
      KODE = 1  NTRIAL =   2  T = 298.9081  P =  100000.      V =  0.00000      Q =  0.00000    
      NO. TEMP ITER =    5     TEMP =  298.529    
      KODE = 1  NTRIAL =   2  T = 298.5291  P =  100000.      V =  0.00000      Q =  0.00000    
      NO. TEMP ITER =    5     TEMP =  298.150    
      KODE = 1  NTRIAL =   2  T = 298.1500  P =  100000.      V =  0.00000      Q =  0.00000    

      BEGIN HOT-TQCURVE  INLET   
      NO. TEMP ITER =    4     TEMP =  514.866    
      KODE = 1  NTRIAL =   4  T = 514.8661  P =  100000.      V =  1.00000      Q =  0.00000    
      KODE = 1  NTRIAL =  10  T = 478.6191  P =  100000.      V =  1.00000      Q =  0.00000    
      KODE = 3  NTRIAL =  11  T = 485.1797  P =  100000.      V =  1.00000      Q = -2605.01    
      KODE = 1  NTRIAL =   9  T = 478.6191  P =  100000.      V =  1.00000      Q =  0.00000    
      KODE = 1  NTRIAL =   4  T = 440.4812  P =  100000.      V =  1.00000      Q =  0.00000    
      KODE = 1  NTRIAL =   6  T = 400.0658  P =  100000.      V =  1.00000      Q =  0.00000    
      KODE = 1  NTRIAL =   6  T = 359.2751  P =  100000.      V = 0.998282      Q =  0.00000    
      KODE = 1  NTRIAL =   6  T = 338.1891  P =  100000.      V = 0.965609      Q =  0.00000    
      KODE = 1  NTRIAL =   5  T = 337.6611  P =  100000.      V = 0.905065      Q =  0.00000    
      KODE = 1  NTRIAL =   4  T = 337.5405  P =  100000.      V = 0.843983      Q =  0.00000    
      KODE = 1  NTRIAL =   4  T = 337.4874  P =  100000.      V = 0.782812      Q =  0.00000    
      KODE = 1  NTRIAL =   4  T = 337.4574  P =  100000.      V = 0.721610      Q =  0.00000    
      KODE = 1  NTRIAL =   4  T = 337.4383  P =  100000.      V = 0.660394      Q =  0.00000    
      KODE = 1  NTRIAL =   4  T = 337.4249  P =  100000.      V = 0.599171      Q =  0.00000    
      KODE = 1  NTRIAL =   4  T = 337.4151  P =  100000.      V = 0.537943      Q =  0.00000    
      KODE = 1  NTRIAL =   4  T = 337.4076  P =  100000.      V = 0.476711      Q =  0.00000    
      KODE = 1  NTRIAL =   3  T = 337.4016  P =  100000.      V = 0.415478      Q =  0.00000    
      KODE = 1  NTRIAL =   3  T = 337.3968  P =  100000.      V = 0.354243      Q =  0.00000    
      KODE = 1  NTRIAL =   3  T = 337.3928  P =  100000.      V = 0.293008      Q =  0.00000    
      KODE = 1  NTRIAL =   3  T = 337.3894  P =  100000.      V = 0.231771      Q =  0.00000    
      KODE = 1  NTRIAL =   3  T = 337.3866  P =  100000.      V = 0.170534      Q =  0.00000    
      KODE = 1  NTRIAL =   3  T = 337.3841  P =  100000.      V = 0.109296      Q =  0.00000    
      KODE = 1  NTRIAL =   3  T = 337.3820  P =  100000.      V = 4.805734E-02  Q =  0.00000    
      NO. TEMP ITER =    5     TEMP =  333.150    
      KODE = 1  NTRIAL =   2  T = 333.1500  P =  100000.      V =  0.00000      Q =  0.00000    
      KODE = 3  NTRIAL =   4  T = 337.3804  P =  100000.      V =  0.00000      Q = -65825.8    
      NO. TEMP ITER =    5     TEMP =  333.150    
      KODE = 1  NTRIAL =   2  T = 333.1500  P =  100000.      V =  0.00000      Q =  0.00000    

      BEGIN COLD-TQCURVE INLET   
      NO. TEMP ITER =    5     TEMP =  305.800    
      KODE = 1  NTRIAL =   2  T = 305.8003  P =  100000.      V =  0.00000      Q =  0.00000    
      NO. TEMP ITER =    5     TEMP =  298.232    
      KODE = 1  NTRIAL =   2  T = 298.2316  P =  100000.      V =  0.00000      Q =  0.00000    

      BEGIN HOT-TQCURVE  INLET   
      END HEATX TQ-CURVE CALCULATIONS FOR BLOCK B16     

      GENERATING RESULTS FOR UOS BLOCK B5       MODEL: HEATER                     TIME =    988.39

      GENERATING RESULTS FOR UOS BLOCK B10      MODEL: HEATER                     TIME =    988.39
      STREAM CATOUT WILL BE FLASHED FOR PROPERTY CALCULATIONS.
      KODE = 1   NO. TEMP ITER =    1     TEMP =  338.151    
      KPHASE =    3 KODE =    1 T =  338.151     P =  100000.     Q =  0.00000    
      STREAM LAOOUT WILL BE FLASHED FOR PROPERTY CALCULATIONS.
      KODE = 1   NO. TEMP ITER =    1     TEMP =  424.945    
      KPHASE =    3 KODE =    1 T =  424.945     P =  100000.     Q =  0.00000    
