
 + + + + + + + + + + + + + + + + + + + + + + + + + + + + + + + + + + + + + + + +
 + + + + + + + + + + + + + + + + + + + + + + + + + + + + + + + + + + + + + + + +
 + +                                                                         + +
 + +                      ASPEN PLUS CALCULATION HISTORY                     + +
 + +                                                                         + +
 + + + + + + + + + + + + + + + + + + + + + + + + + + + + + + + + + + + + + + + +
 + + + + + + + + + + + + + + + + + + + + + + + + + + + + + + + + + + + + + + + +

 ASPEN PLUS IS A TRADEMARK OF           HOTLINE:
 ASPEN TECHNOLOGY, INC.                 U.S.A. 888/996-7100
 781/221-6400                           EUROPE (44) 1189-226555

 PLATFORM: WINDOWS                                       MARCH 19, 2020      
 VERSION: 36.0   Build 249                               THURSDAY    
 INSTALLATION:                                           3:30:23 P.M.        

 THIS COPY OF ASPEN PLUS LICENSED TO RENSSELAER POLYTECHNIC I        


      ASPEN PLUS (R) IS A PROPRIETARY PRODUCT OF ASPEN TECHNOLOGY, INC.
      (ASPENTECH), AND MAY BE USED ONLY UNDER AGREEMENT WITH ASPENTECH.
      RESTRICTED RIGHTS LEGEND:  USE, REPRODUCTION, OR DISCLOSURE BY THE
      U.S. GOVERNMENT IS SUBJECT TO RESTRICTIONS SET FORTH IN 
      (i) FAR 52.227-14, Alt. III, (ii) FAR 52.227-19, (iii) DFARS 
      252.227-7013(c)(1)(ii), or (iv) THE ACCOMPANYING LICENSE AGREEMENT,
      AS APPLICABLE. FOR PURPOSES OF THE FAR, THIS SOFTWARE SHALL BE DEEMED
      TO BE "UNPUBLISHED" AND LICENSED WITH DISCLOSURE PROHIBITIONS.
      CONTRACTOR/SUBCONTRACTOR: ASPEN TECHNOLOGY, INC. 20 CROSBY DRIVE,
      BEDFORD, MA 01730.
 *** INPUT SUMMARY ***

 >>CURRENT RUN

   ORIGINAL RUN                           MARCH 19, 2020      
   3:30:23 P.M.                           THURSDAY    
   INPUT FILE: _1704oep.inm
   RUN ID : _1704oep
          1    ;
          2    ;Input file created by Aspen Plus Rel. 36.0 at 15:30:18 Thu Mar 19, 2020
          3    ;Directory C:\Users\conbor\Downloads  Runid FULL DRAFT HEATXTWO-1_WITH_RECYCLE_WITH_HEATX_3_18
          4    ;
          5
          6
          7    DYNAMICS
          8        DYNAMICS RESULTS=ON
          9
         10    IN-UNITS MET PRESSURE=bar TEMPERATURE=C DELTA-T=C PDROP=bar  &
         11            INVERSE-PRES='1/bar' SHORT-LENGTH=mm
         12
         13    DEF-STREAMS CONVEN ALL
         14
         15    MODEL-OPTION
         16
         17    DATABANKS 'APV100 PURE36' / 'APV100 AQUEOUS' / 'APV100 SOLIDS' &
         18             / 'APV100 INORGANIC' / 'APESV100 AP-EOS' /  &
         19            'NISTV100 NIST-TRC' / NOASPENPCD
         20
         21    PROP-SOURCES 'APV100 PURE36' / 'APV100 AQUEOUS' /  &
         22            'APV100 SOLIDS' / 'APV100 INORGANIC' / 'APESV100 AP-EOS' &
         23             / 'NISTV100 NIST-TRC'
         24
         25    COMPONENTS
         26        GLYCEROL C3H8O3 /
         27        TRIOL-01 C57H104O6 /
         28        TRILI-01 C57H98O6 /
         29        METHA-01 CH4O /
         30        METHY-01 C19H36O2 /
         31        METHY-02 C19H34O2 /
         32        UREA CH4N2O /
         33        CALCI-01 CAO /
         34        LANTH-01 LA2O3 /
         35        AMMON-01 H3N /
         36        GLYCE-01 C4H6O4-N1 /
         37        NITROGEN N2 /
         38        WATER H2O
         39
         40    CISOLID-COMPS CALCI-01 LANTH-01
         41
         42    SOLVE
         43        RUN-MODE MODE=SIM
         44
         45    FLOWSHEET
         46        HIERARCHY B2
         47        CONNECT $C-1 IN=S16 OUT="B2.S4"
         48        CONNECT $C-3 IN=CAOIN OUT="B2.CATIN"
         49        CONNECT $C-2 IN="B2.S5" OUT=S5
         50        BLOCK B4 IN=S6 OUT=S8 GLYCEROL
         51        BLOCK B3 IN=S5 OUT=S6 CATOUT
         52        BLOCK B1 IN=OILS METHANOL OUT=S4
         53        BLOCK B6 IN=S2 OUT=METHOUT BIOEXIN
         54        BLOCK B9 IN=GLYCEROL OUT=METHOUT2 S11
         55        BLOCK B8 IN=S10 OUT=S13
         56        BLOCK B12 IN=S13 OUT=S15 LAOOUT
         57        BLOCK B13 IN=S15 OUT=AMMONIA S17
         58        BLOCK B14 IN=S21 OUT=S18 GCHOT
         59        BLOCK B15 IN=S17 OUT=S21
         60        BLOCK HEATX1 IN=BIOEXIN S8 OUT=BIOEXOUT S2
         61        BLOCK B11 IN=LAOIN UREAIN S11 OUT=S9
         62        BLOCK HEATX2 IN=GCHOT S9 OUT=GCPROD S10
         63        BLOCK B7 IN=METHOUT2 OUT=S3 S7
         64        BLOCK B17 IN=S4 OUT=S1
         65        BLOCK B16 IN=S23 WATERCOO OUT=S20 WATERHOT
         66        BLOCK B19 IN=S3 OUT=S23
         67        BLOCK B5 IN=WATERHOT OUT=S12
         68        BLOCK B10 IN=S1 OUT=S16
         69
         70    PROPERTIES SR-POLAR
         71        PROPERTIES IDEAL / NRTL
         72
         73    ESTIMATE ALL
         74
         75    PROP-DATA PCES-1
         76        IN-UNITS MET PRESSURE=bar TEMPERATURE=C DELTA-T=C PDROP=bar  &
         77            INVERSE-PRES='1/bar' SHORT-LENGTH=mm
         78        PROP-LIST OMEGA / DHVLB / VB / RGYR / RKTZRA / VLSTD
         79        PVAL UREA .5992461800 / 20985.95586 / 48.82570000 /  &
         80            2.6000000E-10 / .2351731880 / 48.82570000
         81        PROP-LIST RKTZRA / VLSTD
         82        PVAL CALCI-01 .2918596200 / 298.9063450
         83        PVAL GLYCE-01 .2037543860 / 69.23640000
         84
         85    PROP-DATA DHVLWT-1
         86        IN-UNITS MET PRESSURE=bar TEMPERATURE=C DELTA-T=C PDROP=bar  &
         87            INVERSE-PRES='1/bar' SHORT-LENGTH=mm
         88        PROP-LIST DHVLWT
         89        PVAL CALCI-01 5.38817025E+5 3396.850000 .3800000000 0.0  &
         90            3396.850000
         91
         92    PROP-DATA KLDIP-1
         93        IN-UNITS MET PRESSURE=bar TEMPERATURE=C DELTA-T=C PDROP=bar  &
         94            INVERSE-PRES='1/bar' SHORT-LENGTH=mm
         95        PROP-LIST KLDIP
         96        PVAL UREA .0494897448 1.57543997E-3 -1.0085909E-5  &
         97            2.44404255E-8 -2.254923E-11 191.8500000 424.8000000
         98        PVAL CALCI-01 -.6218197112 7.78300188E-4 -2.8775749E-7  &
         99            4.5627261E-11 -2.727830E-15 3396.850000 5686.650000
        100
        101    PROP-DATA MULAND-1
        102        IN-UNITS MET PRESSURE=bar TEMPERATURE=C DELTA-T=C PDROP=bar  &
        103            INVERSE-PRES='1/bar' SHORT-LENGTH=mm
        104        PROP-LIST MULAND
        105        PVAL UREA 129.3349773 -7951.576030 -18.41338230 191.8500000  &
        106            424.8000000
        107        PVAL CALCI-01 81.01615608 -12127.32210 -10.25255770  &
        108            1126.850000 1706.850000
        109
        110    PROP-DATA PLXANT-1
        111        IN-UNITS MET PRESSURE=bar TEMPERATURE=C DELTA-T=C PDROP=bar  &
        112            INVERSE-PRES='1/bar' SHORT-LENGTH=mm
        113        PROP-LIST PLXANT
        114        PVAL UREA 77.19179774 -10639.35530 0.0 0.0 -8.846083610  &
        115            3.4142003E-18 6.000000000 191.8500000 431.8500000
        116
        117    PROP-DATA SIGDIP-1
        118        IN-UNITS MET PRESSURE=bar TEMPERATURE=C DELTA-T=C PDROP=bar  &
        119            INVERSE-PRES='1/bar' SHORT-LENGTH=mm
        120        PROP-LIST SIGDIP
        121        PVAL UREA 156.7709600 1.222222220 5.9537296E-10  &
        122            -6.635066E-10 2.6632382E-10 191.8500000 417.7500000
        123        PVAL GLYCE-01 156.3532160 1.222222220 5.9089352E-10  &
        124            -6.640628E-10 2.6313812E-10 323.7990000 543.1900000
        125        PVAL CALCI-01 139.2135830 1.222222220 -2.171954E-10  &
        126            2.3955375E-10 -9.673330E-11 3396.850000 5626.450000
        127
        128    PROP-DATA HOCETA-1
        129        IN-UNITS MET PRESSURE=bar TEMPERATURE=C DELTA-T=C PDROP=bar  &
        130            INVERSE-PRES='1/bar' SHORT-LENGTH=mm
        131        PROP-LIST HOCETA
        132        BPVAL METHA-01 METHA-01 1.630000000
        133        BPVAL METHA-01 AMMON-01 .2000000000
        134        BPVAL AMMON-01 METHA-01 .2000000000
        135
        136    PROP-DATA NRTL-1
        137        IN-UNITS MET PRESSURE=bar TEMPERATURE=C DELTA-T=C PDROP=bar  &
        138            INVERSE-PRES='1/bar' SHORT-LENGTH=mm
        139        PROP-LIST NRTL
        140        BPVAL GLYCEROL METHA-01 0.0 -218.5217000 .3000000000 0.0  &
        141            0.0 0.0 25.00000000 62.50000000
        142        BPVAL METHA-01 GLYCEROL 0.0 547.8301000 .3000000000 0.0  &
        143            0.0 0.0 25.00000000 62.50000000
        144
        145    STREAM CAOIN
        146        SUBSTREAM MIXED TEMP=25. PRES=1. MOLE-FLOW=66. <mol/hr>
        147        MOLE-FRAC CALCI-01 1.
        148
        149    STREAM LAOIN
        150        SUBSTREAM MIXED TEMP=25. PRES=1. MASS-FLOW=2.
        151        MOLE-FRAC LANTH-01 1.
        152
        153    STREAM METHANOL
        154        SUBSTREAM MIXED TEMP=25. PRES=1. MOLE-FLOW=19800. <mol/hr>
        155        MOLE-FRAC METHA-01 1.
        156
        157    STREAM OILS
        158        SUBSTREAM MIXED TEMP=25. PRES=1. MOLE-FLOW=2200. <mol/hr>
        159        MOLE-FRAC TRIOL-01 0.6 / TRILI-01 0.4
        160
        161    STREAM UREAIN
        162        SUBSTREAM MIXED TEMP=25. PRES=1. MASS-FLOW=109.
        163        MOLE-FRAC UREA 1.
        164
        165    STREAM WATERCOO
        166        SUBSTREAM MIXED TEMP=25. PRES=1. MOLE-FLOW=40.
        167        MOLE-FRAC WATER 1.
        168
        169    BLOCK B1 MIXER
        170        PARAM PRES=1. NPHASE=1 PHASE=L TOL=0.01 T-EST=25.
        171        PROPERTIES IDEAL FREE-WATER=STEAM-TA SOLU-WATER=3  &
        172            TRUE-COMPS=YES
        173        BLOCK-OPTION FREE-WATER=NO
        174
        175    BLOCK B11 MIXER
        176        PARAM PRES=1.
        177
        178    BLOCK B17 MIXER
        179        PARAM PRES=1. NPHASE=1 PHASE=L
        180        PROPERTIES IDEAL FREE-WATER=STEAM-TA SOLU-WATER=3  &
        181            TRUE-COMPS=YES
        182        BLOCK-OPTION FREE-WATER=NO
        183
        184    BLOCK B7 FSPLIT
        185        FRAC S3 1.
        186
        187    BLOCK B5 HEATER
        188        PARAM TEMP=100. PRES=1. NPHASE=1 PHASE=V DPPARMOPT=NO
        189        BLOCK-OPTION FREE-WATER=NO
        190
        191    BLOCK B10 HEATER
        192        PARAM TEMP=65. PRES=1. NPHASE=1 PHASE=L DPPARMOPT=NO
        193        BLOCK-OPTION FREE-WATER=NO
        194
        195    BLOCK B9 FLASH2
        196        PARAM TEMP=100. PRES=0.2 MAXIT=30
        197        PROPERTIES SR-POLAR FREE-WATER=STEAM-TA SOLU-WATER=3  &
        198            TRUE-COMPS=YES
        199
        200    BLOCK B13 FLASH2
        201        PARAM PRES=0.5 DUTY=0.
        202
        203    BLOCK B4 DECANTER
        204        PARAM TEMP=65. PRES=1. LL-METH=EQ-SOLVE L2-COMPS=METHA-01  &
        205            L2-CUTOFF=0.5 MAXIT=30
        206
        207    BLOCK B16 HEATX
        208        PARAM T-HOT=60. CALC-TYPE=DESIGN U-OPTION=PHASE  &
        209            F-OPTION=CONSTANT CALC-METHOD=SHORTCUT
        210        FEEDS HOT=S23 COLD=WATERCOO
        211        OUTLETS-HOT S20
        212        OUTLETS-COLD WATERHOT
        213        PROPERTIES SR-POLAR FREE-WATER=STEAM-TA SOLU-WATER=3  &
        214            TRUE-COMPS=YES / STEAM-TA FREE-WATER=STEAM-TA  &
        215            SOLU-WATER=3 TRUE-COMPS=YES
        216        HOT-SIDE DP-OPTION=CONSTANT DPPARMOPT=NO
        217        COLD-SIDE DP-OPTION=CONSTANT DPPARMOPT=NO
        218        TQ-PARAM CURVE=YES
        219
        220    BLOCK HEATX1 HEATX
        221        PARAM T-COLD=105. CALC-TYPE=DESIGN U-OPTION=PHASE  &
        222            F-OPTION=CONSTANT CALC-METHOD=SHORTCUT
        223        FEEDS HOT=BIOEXIN COLD=S8
        224        OUTLETS-HOT BIOEXOUT
        225        OUTLETS-COLD S2
        226        PROPERTIES NRTL FREE-WATER=STEAM-TA SOLU-WATER=3  &
        227            TRUE-COMPS=YES / NRTL FREE-WATER=STEAM-TA SOLU-WATER=3  &
        228            TRUE-COMPS=YES
        229        HOT-SIDE DP-OPTION=CONSTANT DPPARMOPT=NO
        230        COLD-SIDE DP-OPTION=CONSTANT DPPARMOPT=NO
        231        TQ-PARAM CURVE=YES
        232
        233    BLOCK HEATX2 HEATX
        234        PARAM T-COLD=140. CALC-TYPE=DESIGN U-OPTION=PHASE  &
        235            F-OPTION=CONSTANT CALC-METHOD=SHORTCUT
        236        FEEDS HOT=GCHOT COLD=S9
        237        OUTLETS-HOT GCPROD
        238        OUTLETS-COLD S10
        239        HOT-SIDE DP-OPTION=CONSTANT DPPARMOPT=NO
        240        COLD-SIDE DP-OPTION=CONSTANT DPPARMOPT=NO
        241        TQ-PARAM CURVE=YES
        242
        243    BLOCK B6 RADFRAC
        244        PARAM NSTAGE=3 ALGORITHM=NONIDEAL INIT-OPTION=STANDARD  &
        245            MAXOL=200 DAMPING=NONE
        246        COL-CONFIG CONDENSER=PARTIAL-V
        247        FEEDS S2 2 ABOVE-STAGE
        248        PRODUCTS BIOEXIN 3 L / METHOUT 1 V
        249        P-SPEC 1 1. / 2 1.
        250        COL-SPECS MASS-D:F=0.17 MASS-RR=3.
        251        DB:F-PARAMS STREAMS=S2
        252        PROPERTIES IDEAL FREE-WATER=STEAM-TA SOLU-WATER=3  &
        253            TRUE-COMPS=YES
        254
        255    BLOCK B14 RADFRAC
        256        PARAM NSTAGE=16 ALGORITHM=STANDARD MAXOL=25 DAMPING=NONE
        257        COL-CONFIG CONDENSER=PARTIAL-V
        258        FEEDS S21 10
        259        PRODUCTS S18 1 V / GCHOT 16 L
        260        P-SPEC 1 1.
        261        COL-SPECS MASS-D:F=0.18 MOLE-RR=3.
        262
        263    BLOCK B8 RSTOIC
        264        PARAM TEMP=140. PRES=3. <kPa>
        265        STOIC 1 MIXED GLYCEROL -1. / UREA -1. / AMMON-01 2. /  &
        266            GLYCE-01 1.
        267        CONV 1 MIXED GLYCEROL 0.85
        268
        269    HIERARCHY B2
        270
        271
        272    DEF-STREAMS CONVEN ALL
        273
        274    SOLVE
        275        PARAM METHOD=SM PROCESS=BATCH
        276        RUN-MODE MODE=SIM
        277
        278    FLOWSHEET
        279        BLOCK B1 IN=S1 OUT=S5
        280        BLOCK B2 IN=S4 CATIN OUT=S1
        281
        282    PROPERTIES SR-POLAR FREE-WATER=STEAM-TA SOLU-WATER=3  &
        283            TRUE-COMPS=YES
        284        PROPERTIES IDEAL / NRTL
        285
        286    BLOCK B2 MIXER
        287        PARAM PRES=1. NPHASE=1 PHASE=L
        288        PROPERTIES SR-POLAR FREE-WATER=STEAM-TA SOLU-WATER=3  &
        289            TRUE-COMPS=YES
        290        BLOCK-OPTION FREE-WATER=NO
        291
        292    BLOCK B1 BATCHOP
        293        PARAM TYPE=T-SPEC PRES=1. TEMP=65. NPHASE=1 PHASE=L
        294        INIT-COND FEED-TIME=1.
        295        DISCHARGE DISCHARGE-T=1.
        296        REACTIONS RXN-IDS=R-1 R-2
        297        BLOCK-OPTION FREE-WATER=NO
        298
        299    EO-CONV-OPTI
        300
        301    BATCH-OPTS
        302        PARAM MAX-TIME=6. OUTPUT-INT=0.05
        303
        304    ENDHIERARCHY B2
        305
        306    BLOCK B15 PUMP
        307        PARAM DELP=0.5
        308
        309    BLOCK B19 COMPR
        310        PARAM TYPE=ISENTROPIC DELP=0.8 NPHASE=2 SB-MAXIT=30  &
        311            SB-TOL=0.0001
        312        BLOCK-OPTION FREE-WATER=NO
        313
        314    BLOCK B3 CFUGE
        315        PARAM TYPE=SOLIDS-SEP NPHASE=2 PRES=1. DELT=0.
        316        SOLIDS-SEP SOLID-SPLIT=1. FLUID-SPLIT=1.
        317        PROPERTIES NRTL FREE-WATER=STEAM-TA SOLU-WATER=3  &
        318            TRUE-COMPS=YES
        319
        320    BLOCK B12 CFUGE
        321        PARAM TYPE=SOLIDS-SEP NPHASE=2 PRES=1.
        322        SOLIDS-SEP SOLID-SPLIT=1. FLUID-SPLIT=1.
        323
        324    EO-CONV-OPTI
        325
        326    STREAM-REPOR MOLEFLOW
        327
        328    PROPERTY-REP PCES
        329
        330    REACTIONS R-1 LHHW
        331        REAC-DATA 1
        332        RATE-CON 1 PRE-EXP=0.07 ACT-ENERGY=16.6 <kJ/mol>
        333        STOIC 1 MIXED TRIOL-01 -1. / METHA-01 -3. / METHY-01 3. / &
        334            GLYCEROL 1.
        335        DFORCE-EXP-1 1 MIXED TRIOL-01 1. / MIXED METHA-01 0. /  &
        336            MIXED METHY-01 0. / MIXED GLYCEROL 0.
        337        DFORCE-EQ-1 REACNO=1 A=0.
        338        DFORCE-EQ-2 REACNO=1 A=-52.95
        339
        340    REACTIONS R-2 LHHW
        341        REAC-DATA 1
        342        RATE-CON 1 PRE-EXP=0.07 ACT-ENERGY=16.6 <kJ/mol>
        343        STOIC 1 MIXED TRILI-01 -1. / METHA-01 -3. / GLYCEROL 1. / &
        344            METHY-02 3.
        345        DFORCE-EXP-1 1 MIXED TRILI-01 1. / MIXED METHA-01 0. /  &
        346            MIXED GLYCEROL 0. / MIXED METHY-02 0.
        347        DFORCE-EQ-1 REACNO=1 A=0.
        348        DFORCE-EQ-2 REACNO=1 A=-52.95
        349
        350    PROP-TABLE BINRY-2 PROPS
        351        IN-UNITS MET PRESSURE=bar TEMPERATURE=C DELTA-T=C PDROP=bar  &
        352            INVERSE-PRES='1/bar' SHORT-LENGTH=mm
        353        ANALYSIS ANAL-TYPE=GIBBS UNITS='cal/mol'
        354        PROPERTIES SR-POLAR FREE-WATER=STEAM-TA SOLU-WATER=3  &
        355            TRUE-COMPS=YES
        356        MOLE-FLOW GLYCEROL 1 /  METHY-01  1
        357        STATE PRES=1.
        358        VARY TEMP
        359        RANGE LIST=40.
        360        VARY MOLEFRAC COMP=GLYCEROL
        361        RANGE VARVALUE=RANGE LOWER=0.0 UPPER=1.0 NPOINT=50
        362        PARAM NPHASE=3
        363    ;
        364    ;
        365    ;
        366    ;
        367    ;
Added container block B2
 *** INPUT TRANSLATOR MESSAGES ***

  *** THIS RUN USES THE PROPERTIES ENTERPRISE DATABASE ***
      SQLLOCALDB.APESV100 : (DATAVERSION - 36.0.0.1)                          
      SQLLOCALDB.APV100 : (DATAVERSION - 36.0.0.21)                           
      SQLLOCALDB.FACTV100 : (DATAVERSION - 36.0.0.1)                          
      SQLLOCALDB.NISTV100 : (DATAVERSION - 36.0.0.15)                         

      INFORMATION IN PHYSICAL PROPERTY SYSTEM                  (PCERTE.10)      
      STRUCTURE FOR COMPONENT TRILI-01 HAS NOT BEEN DEFINED.                    
      PCES CANNOT USE GROUP-CONTRIBUTION METHODS TO ESTIMATE MISSING PROPERTIES.
      USE THE STRUCTURES PARAGRAPH TO DEFINE STRUCTURES OF THIS COMPONENT.      

      INFORMATION IN PHYSICAL PROPERTY SYSTEM                  (PCERTE.10)      
      STRUCTURE FOR COMPONENT UREA HAS NOT BEEN DEFINED.                        
      PCES CANNOT USE GROUP-CONTRIBUTION METHODS TO ESTIMATE MISSING PROPERTIES.
      USE THE STRUCTURES PARAGRAPH TO DEFINE STRUCTURES OF THIS COMPONENT.      

      INFORMATION IN PHYSICAL PROPERTY SYSTEM                  (PCERTE.10)      
      STRUCTURE FOR COMPONENT CALCI-01 HAS NOT BEEN DEFINED.                    
      PCES CANNOT USE GROUP-CONTRIBUTION METHODS TO ESTIMATE MISSING PROPERTIES.
      USE THE STRUCTURES PARAGRAPH TO DEFINE STRUCTURES OF THIS COMPONENT.      

      INFORMATION IN PHYSICAL PROPERTY SYSTEM                  (PCERTE.10)      
      STRUCTURE FOR COMPONENT LANTH-01 HAS NOT BEEN DEFINED.                    
      PCES CANNOT USE GROUP-CONTRIBUTION METHODS TO ESTIMATE MISSING PROPERTIES.
      USE THE STRUCTURES PARAGRAPH TO DEFINE STRUCTURES OF THIS COMPONENT.      

      INFORMATION IN PHYSICAL PROPERTY SYSTEM                  (PCERTE.10)      
      STRUCTURE FOR COMPONENT GLYCE-01 HAS NOT BEEN DEFINED.                    
      PCES CANNOT USE GROUP-CONTRIBUTION METHODS TO ESTIMATE MISSING PROPERTIES.
      USE THE STRUCTURES PARAGRAPH TO DEFINE STRUCTURES OF THIS COMPONENT.      

      INFORMATION IN PHYSICAL PROPERTY SYSTEM                  (LOADMW.5)       
      MW AVAILABLE FOR COMPONENT TRILI-01 IS DIFFERENT FROM MW                  
      CALCULATED FROM FORMULA (ATOMNO/NOATOM).  CALCULATED VALUE IS USED.       
      AVAILABLE MW =   879.3840     CALCULATED MW =   879.4015                  

  *   WARNING IN PHYSICAL PROPERTY SYSTEM                      (LCLIMS.4)       
      PARAMETER DHVLWT/ELEMENT  1 (DATA SET 1)                                  
      UPPER BOUND VIOLATED FOR COMPONENT CALCI-01                               
      VALUE =  0.22559E+10, UPPER BOUND =  0.60000E+09                          

  *   WARNING IN PHYSICAL PROPERTY SYSTEM                      (LCLIMS.4)       
      PARAMETER DHVLWT/ELEMENT  5 (DATA SET 1)                                  
      UPPER BOUND VIOLATED FOR COMPONENT CALCI-01                               
      VALUE =   3670.0    , UPPER BOUND =   1500.0                              

  *   WARNING WHILE CHECKING INPUT SPECIFICATIONS              (PRPCHK.1)       
      INCONSISTENT PROPERTIES DETECTED FOR 7 STREAMS                            
      SOURCE BLOCK        PROPERTIES STREAM   DESTINATION BLOCK   PROPERTIES    
      =================== ========== ======== =================== ==========    
      B3                  NRTL       S6       B4                  SR-POLAR      
      B2.B1               SR-POLAR   S5       B3                  NRTL          
      HEATX1              NRTL       S2       B6                  IDEAL         
      B6                  IDEAL      BIOEXIN  HEATX1              NRTL          
      B4                  SR-POLAR   S8       HEATX1              NRTL          
      B16                 STEAM-TA   WATERHOT B5                  SR-POLAR      
      B17                 IDEAL      S1       B10                 SR-POLAR      
 
 

 PDF updated                                                                      TIME =      7.93


 THE FOLLOWING PURE COMPONENT PARAMETERS ARE ESTIMATED FOR MODEL ESRKU:


 COMPONENT GLYCEROL
      POLAR PARAMETER RKUPP0 =    -0.065662
                      RKUPP1 =     3.433459
                      RKUPP2 =    -6.929989

 COMPONENT TRIOL-01
      POLAR PARAMETER RKUPP0 =     4.099804
                      RKUPP1 =    -3.004889
                      RKUPP2 =     2.162829

 COMPONENT TRILI-01
      POLAR PARAMETER RKUPP0 =     4.075085
                      RKUPP1 =    -3.003402
                      RKUPP2 =     2.160700

 COMPONENT METHA-01
      POLAR PARAMETER RKUPP0 =     0.162227
                      RKUPP1 =    -1.430134
                      RKUPP2 =     0.008900

 COMPONENT METHY-01
      POLAR PARAMETER RKUPP0 =    -0.028342
                      RKUPP1 =   -11.709490
                      RKUPP2 =    14.975620

 COMPONENT METHY-02
      POLAR PARAMETER RKUPP0 =     0.959016
                      RKUPP1 =    -2.964248
                      RKUPP2 =     2.123185

 COMPONENT UREA    
      POLAR PARAMETER RKUPP0 =    -0.323045
                      RKUPP1 =    -2.966432
                      RKUPP2 =     2.198500

 COMPONENT CALCI-01
      POLAR PARAMETER RKUPP0 =     0.711866
                      RKUPP1 =    -4.328770
                      RKUPP2 =    -5.480186

 COMPONENT LANTH-01
      POLAR PARAMETER RKUPP0 =     0.000000
                      RKUPP1 =     0.000000
                      RKUPP2 =     0.000000

 COMPONENT AMMON-01
      POLAR PARAMETER RKUPP0 =     0.036832
                      RKUPP1 =    -0.837919
                      RKUPP2 =    -0.809507

 COMPONENT GLYCE-01
      POLAR PARAMETER RKUPP0 =     0.000000
                      RKUPP1 =     0.000000
                      RKUPP2 =     0.000000

 COMPONENT NITROGEN
      POLAR PARAMETER RKUPP0 =     0.000000
                      RKUPP1 =     0.000000
                      RKUPP2 =     0.000000

 COMPONENT WATER   
      POLAR PARAMETER RKUPP0 =     0.065549
                      RKUPP1 =    -0.560763
                      RKUPP2 =    -1.260662

 THE FOLLOWING BINARY-INTERACTION PARAMETERS ARE ESTIMATED FOR MODEL ESRKU:


 BINARY GLYCEROL - TRIOL-01

      INTERACTION PARAMETERS NOT PREDICTED BECAUSE UNIFAC GENERATES VERY LOW OR HIGH PRESSURE DATA

 BINARY GLYCEROL - TRILI-01

      INTERACTION PARAMETERS NOT PREDICTED BECAUSE UNIFAC GROUP PARAMETERS ARE MISSING

 BINARY GLYCEROL - METHA-01
      RKUKA0 =   -0.121950    
      RKUKA2 =     23.8381    
      RKULA0 =    0.341113E-01
      RKULA2 =    -10.0315    

      FOR     298.15 (K) <= T <=    318.15 (K)


 BINARY GLYCEROL - METHY-01

      INTERACTION PARAMETERS NOT PREDICTED BECAUSE UNIFAC GENERATES VERY LOW OR HIGH PRESSURE DATA

 BINARY GLYCEROL - METHY-02

      INTERACTION PARAMETERS NOT PREDICTED BECAUSE UNIFAC GENERATES VERY LOW OR HIGH PRESSURE DATA

 BINARY GLYCEROL - UREA    

      INTERACTION PARAMETERS NOT PREDICTED BECAUSE UNIFAC GROUP PARAMETERS ARE MISSING

 BINARY GLYCEROL - CALCI-01

      INTERACTION PARAMETERS NOT PREDICTED BECAUSE UNIFAC GROUP PARAMETERS ARE MISSING

 BINARY GLYCEROL - LANTH-01

      INTERACTION PARAMETERS CANNOT BE PREDICTED USING UNIFAC

 BINARY GLYCEROL - GLYCE-01

      INTERACTION PARAMETERS NOT PREDICTED BECAUSE UNIFAC GROUP PARAMETERS ARE MISSING

 BINARY GLYCEROL - WATER   
      RKUKA0 =    0.603974E-02
      RKUKA2 =    -15.3785    
      RKULA0 =    0.789942E-02
      RKULA2 =    -2.78712    

      FOR     298.15 (K) <= T <=    318.15 (K)


 BINARY TRIOL-01 - TRILI-01

      INTERACTION PARAMETERS NOT PREDICTED BECAUSE UNIFAC GROUP PARAMETERS ARE MISSING

 BINARY TRIOL-01 - METHA-01

      INTERACTION PARAMETERS NOT PREDICTED BECAUSE UNIFAC GENERATES VERY LOW OR HIGH PRESSURE DATA

 BINARY TRIOL-01 - METHY-01

      INTERACTION PARAMETERS NOT PREDICTED BECAUSE UNIFAC GENERATES VERY LOW OR HIGH PRESSURE DATA

 BINARY TRIOL-01 - METHY-02

      INTERACTION PARAMETERS NOT PREDICTED BECAUSE UNIFAC GENERATES VERY LOW OR HIGH PRESSURE DATA

 BINARY TRIOL-01 - UREA    

      INTERACTION PARAMETERS NOT PREDICTED BECAUSE UNIFAC GROUP PARAMETERS ARE MISSING

 BINARY TRIOL-01 - CALCI-01

      INTERACTION PARAMETERS NOT PREDICTED BECAUSE UNIFAC GROUP PARAMETERS ARE MISSING

 BINARY TRIOL-01 - LANTH-01

      INTERACTION PARAMETERS NOT PREDICTED BECAUSE UNIFAC GROUP PARAMETERS ARE MISSING

 BINARY TRIOL-01 - GLYCE-01

      INTERACTION PARAMETERS NOT PREDICTED BECAUSE UNIFAC GROUP PARAMETERS ARE MISSING

 BINARY TRIOL-01 - WATER   

      INTERACTION PARAMETERS NOT PREDICTED BECAUSE UNIFAC GENERATES VERY LOW OR HIGH PRESSURE DATA

 BINARY TRILI-01 - METHA-01

      INTERACTION PARAMETERS NOT PREDICTED BECAUSE UNIFAC GROUP PARAMETERS ARE MISSING

 BINARY TRILI-01 - METHY-01

      INTERACTION PARAMETERS NOT PREDICTED BECAUSE UNIFAC GROUP PARAMETERS ARE MISSING

 BINARY TRILI-01 - METHY-02

      INTERACTION PARAMETERS NOT PREDICTED BECAUSE UNIFAC GROUP PARAMETERS ARE MISSING

 BINARY TRILI-01 - UREA    

      INTERACTION PARAMETERS NOT PREDICTED BECAUSE UNIFAC GROUP PARAMETERS ARE MISSING

 BINARY TRILI-01 - CALCI-01

      INTERACTION PARAMETERS NOT PREDICTED BECAUSE UNIFAC GROUP PARAMETERS ARE MISSING

 BINARY TRILI-01 - LANTH-01

      INTERACTION PARAMETERS NOT PREDICTED BECAUSE UNIFAC GROUP PARAMETERS ARE MISSING

 BINARY TRILI-01 - GLYCE-01

      INTERACTION PARAMETERS NOT PREDICTED BECAUSE UNIFAC GROUP PARAMETERS ARE MISSING

 BINARY TRILI-01 - WATER   

      INTERACTION PARAMETERS NOT PREDICTED BECAUSE UNIFAC GROUP PARAMETERS ARE MISSING

 BINARY METHA-01 - METHY-01
      RKUKA0 =   -0.597541E-01
      RKUKA2 =     2.71431    
      RKULA0 =   -0.139340E-01
      RKULA2 =    -11.3968    

      FOR     298.15 (K) <= T <=    318.15 (K)


 BINARY METHA-01 - METHY-02
      RKUKA0 =    0.153105E-01
      RKUKA2 =    -25.2241    
      RKULA0 =   -0.182201E-02
      RKULA2 =    -16.6520    

      FOR     298.15 (K) <= T <=    318.15 (K)


 BINARY METHA-01 - UREA    

      INTERACTION PARAMETERS NOT PREDICTED BECAUSE UNIFAC GROUP PARAMETERS ARE MISSING

 BINARY METHA-01 - CALCI-01

      INTERACTION PARAMETERS NOT PREDICTED BECAUSE UNIFAC GROUP PARAMETERS ARE MISSING

 BINARY METHA-01 - LANTH-01

      INTERACTION PARAMETERS CANNOT BE PREDICTED USING UNIFAC

 BINARY METHA-01 - GLYCE-01

      INTERACTION PARAMETERS NOT PREDICTED BECAUSE UNIFAC GROUP PARAMETERS ARE MISSING

 BINARY METHA-01 - WATER   
      RKUKA0 =   -0.553952E-01
      RKUKA2 =    -9.48761    
      RKULA0 =    0.171613E-01
      RKULA2 =    -3.75214    

      FOR     298.15 (K) <= T <=    318.15 (K)


 BINARY METHY-01 - METHY-02

      INTERACTION PARAMETERS NOT PREDICTED BECAUSE UNIFAC GENERATES VERY LOW OR HIGH PRESSURE DATA

 BINARY METHY-01 - UREA    

      INTERACTION PARAMETERS NOT PREDICTED BECAUSE UNIFAC GROUP PARAMETERS ARE MISSING

 BINARY METHY-01 - CALCI-01

      INTERACTION PARAMETERS NOT PREDICTED BECAUSE UNIFAC GROUP PARAMETERS ARE MISSING

 BINARY METHY-01 - LANTH-01

      INTERACTION PARAMETERS NOT PREDICTED BECAUSE UNIFAC GROUP PARAMETERS ARE MISSING

 BINARY METHY-01 - GLYCE-01

      INTERACTION PARAMETERS NOT PREDICTED BECAUSE UNIFAC GROUP PARAMETERS ARE MISSING

 BINARY METHY-01 - WATER   
      RKUKA0 =    0.111729    
      RKUKA2 =    -102.712    
      RKULA0 =    0.254424    
      RKULA2 =    -28.7397    

      FOR     298.15 (K) <= T <=    318.15 (K)


 BINARY METHY-02 - UREA    

      INTERACTION PARAMETERS NOT PREDICTED BECAUSE UNIFAC GROUP PARAMETERS ARE MISSING

 BINARY METHY-02 - CALCI-01

      INTERACTION PARAMETERS NOT PREDICTED BECAUSE UNIFAC GROUP PARAMETERS ARE MISSING

 BINARY METHY-02 - LANTH-01

      INTERACTION PARAMETERS NOT PREDICTED BECAUSE UNIFAC GROUP PARAMETERS ARE MISSING

 BINARY METHY-02 - GLYCE-01

      INTERACTION PARAMETERS NOT PREDICTED BECAUSE UNIFAC GROUP PARAMETERS ARE MISSING

 BINARY METHY-02 - WATER   
      RKUKA0 =   -0.292058    
      RKUKA2 =     12.7089    
      RKULA0 =    0.632576    
      RKULA2 =    -152.434    

      FOR     298.15 (K) <= T <=    318.15 (K)


 BINARY UREA     - CALCI-01

      INTERACTION PARAMETERS NOT PREDICTED BECAUSE UNIFAC GROUP PARAMETERS ARE MISSING

 BINARY UREA     - LANTH-01

      INTERACTION PARAMETERS CANNOT BE PREDICTED USING UNIFAC

 BINARY UREA     - GLYCE-01

      INTERACTION PARAMETERS NOT PREDICTED BECAUSE UNIFAC GROUP PARAMETERS ARE MISSING

 BINARY UREA     - WATER   

      INTERACTION PARAMETERS NOT PREDICTED BECAUSE UNIFAC GROUP PARAMETERS ARE MISSING

 BINARY CALCI-01 - LANTH-01

      INTERACTION PARAMETERS CANNOT BE PREDICTED USING UNIFAC

 BINARY CALCI-01 - GLYCE-01

      INTERACTION PARAMETERS NOT PREDICTED BECAUSE UNIFAC GROUP PARAMETERS ARE MISSING

 BINARY CALCI-01 - WATER   

      INTERACTION PARAMETERS NOT PREDICTED BECAUSE UNIFAC GROUP PARAMETERS ARE MISSING

 BINARY LANTH-01 - GLYCE-01

      INTERACTION PARAMETERS CANNOT BE PREDICTED USING UNIFAC

 BINARY LANTH-01 - WATER   

      INTERACTION PARAMETERS CANNOT BE PREDICTED USING UNIFAC

 BINARY GLYCE-01 - WATER   

      INTERACTION PARAMETERS NOT PREDICTED BECAUSE UNIFAC GROUP PARAMETERS ARE MISSING

 *** CALCULATION TRACE ***


 *** FLOWSHEET ANALYSIS MESSAGES ***

 FLOWSHEET CONNECTIVITY BY STREAMS       

 FLOWSHEET SECTION GLOBAL  
   STREAM     SOURCE     DEST           STREAM     SOURCE     DEST
   CAOIN      ----       $C-3           METHANOL   ----       B1      
   OILS       ----       B1             UREAIN     ----       B11     
   LAOIN      ----       B11            WATERCOO   ----       B16     
   S5         $C-2       B3             S8         B4         HEATX1  
   GLYCEROL   B4         B9             S6         B3         B4      
   CATOUT     B3         ----           S4         B1         B17     
   METHOUT    B6         ----           BIOEXIN    B6         HEATX1  
   METHOUT2   B9         B7             S11        B9         B11     
   S13        B8         B12            S15        B12        B13     
   LAOOUT     B12        ----           AMMONIA    B13        ----    
   S17        B13        B15            S18        B14        ----    
   GCHOT      B14        HEATX2         S21        B15        B14     
   BIOEXOUT   HEATX1     ----           S2         HEATX1     B6      
   S9         B11        HEATX2         GCPROD     HEATX2     ----    
   S10        HEATX2     B8             S3         B7         B19     
   S7         B7         ----           S1         B17        B10     
   S20        B16        ----           WATERHOT   B16        B5      
   S23        B19        B16            S12        B5         ----    
   S16        B10        $C-1                                         

 FLOWSHEET CONNECTIVITY BY BLOCKS        

 FLOWSHEET SECTION GLOBAL  
   BLOCK        INLETS                         OUTLETS
   $C-1         S16                            S4                          
   $C-3         CAOIN                          CATIN                       
   $C-2         S5                             S5                          
   B4           S6                             S8 GLYCEROL                 
   B3           S5                             S6 CATOUT                   
   B1           OILS METHANOL                  S4                          
   B6           S2                             METHOUT BIOEXIN             
   B9           GLYCEROL                       METHOUT2 S11                
   B8           S10                            S13                         
   B12          S13                            S15 LAOOUT                  
   B13          S15                            AMMONIA S17                 
   B14          S21                            S18 GCHOT                   
   B15          S17                            S21                         
   HEATX1       BIOEXIN S8                     BIOEXOUT S2                 
   B11          LAOIN UREAIN S11               S9                          
   HEATX2       GCHOT S9                       GCPROD S10                  
   B7           METHOUT2                       S3 S7                       
   B17          S4                             S1                          
   B16          S23 WATERCOO                   S20 WATERHOT                
   B19          S3                             S23                         
   B5           WATERHOT                       S12                         
   B10          S1                             S16                         

      BATCH CONVERGENCE BLOCK $BASVR01 HAS BEEN DEFINED

      BLOCK $OLVER02 (METHOD: WEGSTEIN) HAS BEEN DEFINED TO CONVERGE
               STREAMS: BIOEXIN

      BLOCK $OLVER03 (METHOD: WEGSTEIN) HAS BEEN DEFINED TO CONVERGE
               STREAMS: GCHOT

      COMPUTATION ORDER FOR THE FLOWSHEET IS:
      B1 B17 $C-3 B10 $C-1 
      B2.$BASVR01 B2.B2 B2.B1 
      (RETURN B2.$BASVR01) 
      $C-2 B3 B4 
      $OLVER02 HEATX1 B6 
      (RETURN $OLVER02) 
      B9 B7 B19 B16 B5 B11 
      $OLVER03 HEATX2 B8 B12 B13 B15 B14 
      (RETURN $OLVER03) 

Calculations begin                                                              time      0.08


 SIMULATION CALCULATIONS BEGIN                                                    TIME =      0.08

      ENTHALPY CALCULATION FOR INLET STREAM OILS OF BLOCK B1                      TIME =      0.08
      KODE = 2  NTRIAL =   3  T = 298.1500  P =  100000.      V =  0.00000      Q =  0.00000    

      ENTHALPY CALCULATION FOR INLET STREAM METHANOL OF BLOCK B1                  TIME =      0.09
      KODE = 2  NTRIAL =   1  T = 298.1500  P =  100000.      V =  0.00000      Q =  0.00000    

      UOS BLOCK B1       MODEL: MIXER                                             TIME =      0.09
      KODE = 1   NO. TEMP ITER =    1     TEMP =  298.150    
      KPHASE =    2 KODE =    1 T =  298.150     P =  100000.     Q =  0.00000    

      UOS BLOCK B17      MODEL: MIXER                                             TIME =      0.09
      KODE = 1   NO. TEMP ITER =    4     TEMP =  298.150    
      KPHASE =    2 KODE =    1 T =  298.150     P =  100000.     Q =  0.00000    

      ENTHALPY CALCULATION FOR INLET STREAM CAOIN OF BLOCK $C-3                   TIME =      0.09
      KODE = 2   NO. TEMP ITER =    1     TEMP =  298.150    
      KPHASE =    3 KODE =    2 T =  298.150     P =  100000.     Q =  0.00000    

      UOS BLOCK $C-3     MODEL: DUPL                                              TIME =      0.09

      UOS BLOCK B10      MODEL: HEATER                                            TIME =      0.09
      KODE = 2   NO. TEMP ITER =    1     TEMP =  338.150    
      KPHASE =    2 KODE =    2 T =  338.150     P =  100000.     Q =  308053.    

      UOS BLOCK $C-1     MODEL: DUPL                                              TIME =      0.09

      Batch Convergence Block $BASVR01 Hierarchy: B2                              TIME =      0.09

  *   WARNING WHILE EXECUTING BATCH CONVERGENC BLOCK: "$BASVR01" IN "B2"        
                                                               (WRTVARIN.1)     
      No active unit procedure is detected. The simulation will run to          
      the maximum integration time of 6.000 HR                                  

      Start task machine for batch B2.$BASVR01
         # Tasks =    0 NVTEAR =    0 NVTASK =    0 NVVARG =    0

      UOS BLOCK B2       MODEL: MIXER        HIERARCHY: B2                        TIME =      0.09
      KODE = 1   NO. TEMP ITER =    6     TEMP =  338.097    
      KPHASE =    2 KODE =    1 T =  338.097     P =  100000.     Q =  0.00000    

      UOS BLOCK B1       MODEL: BATCHOP      HIERARCHY: B2                        TIME =      0.09

      UOS BLOCK B1       MODEL: BATCHOP      HIERARCHY: B2                        TIME =      0.09
      STREAM B2.S5 WILL BE FLASHED FOR PROPERTY CALCULATIONS.
      KODE = 2   NO. TEMP ITER =    1     TEMP =  338.097    
      KPHASE =    2 KODE =    2 T =  338.097     P =  100000.     Q =-1.074539E-07

      UOS BLOCK B1       MODEL: BATCHOP      HIERARCHY: B2                        TIME =      0.27

      Integrating from  0.0000     to 0.10000E-01 by 0.10000E-01 HR

      UOS BLOCK B2       MODEL: MIXER        HIERARCHY: B2                        TIME =      0.34
      KODE = 1   NO. TEMP ITER =    1     TEMP =  338.097    
      KPHASE =    2 KODE =    1 T =  338.097     P =  100000.     Q =  0.00000    

      UOS BLOCK B1       MODEL: BATCHOP      HIERARCHY: B2                        TIME =      0.34

      UOS BLOCK B1       MODEL: BATCHOP      HIERARCHY: B2                        TIME =      0.35

      Integrating from 0.10000E-01 to 0.20000E-01 by 0.10000E-01 HR

      UOS BLOCK B2       MODEL: MIXER        HIERARCHY: B2                        TIME =      0.35
      KODE = 1   NO. TEMP ITER =    1     TEMP =  338.097    
      KPHASE =    2 KODE =    1 T =  338.097     P =  100000.     Q =  0.00000    

      UOS BLOCK B1       MODEL: BATCHOP      HIERARCHY: B2                        TIME =      0.35

      UOS BLOCK B1       MODEL: BATCHOP      HIERARCHY: B2                        TIME =      0.35

      Integrating from 0.20000E-01 to 0.30000E-01 by 0.10000E-01 HR

      UOS BLOCK B2       MODEL: MIXER        HIERARCHY: B2                        TIME =      0.35
      KODE = 1   NO. TEMP ITER =    1     TEMP =  338.097    
      KPHASE =    2 KODE =    1 T =  338.097     P =  100000.     Q =  0.00000    

      UOS BLOCK B1       MODEL: BATCHOP      HIERARCHY: B2                        TIME =      0.35

      UOS BLOCK B1       MODEL: BATCHOP      HIERARCHY: B2                        TIME =      0.36

      Integrating from 0.30000E-01 to 0.40000E-01 by 0.10000E-01 HR

      UOS BLOCK B2       MODEL: MIXER        HIERARCHY: B2                        TIME =      0.36
      KODE = 1   NO. TEMP ITER =    1     TEMP =  338.097    
      KPHASE =    2 KODE =    1 T =  338.097     P =  100000.     Q =  0.00000    

      UOS BLOCK B1       MODEL: BATCHOP      HIERARCHY: B2                        TIME =      0.36

      UOS BLOCK B1       MODEL: BATCHOP      HIERARCHY: B2                        TIME =      0.36

      Integrating from 0.40000E-01 to 0.50000E-01 by 0.10000E-01 HR

      UOS BLOCK B2       MODEL: MIXER        HIERARCHY: B2                        TIME =      0.36
      KODE = 1   NO. TEMP ITER =    1     TEMP =  338.097    
      KPHASE =    2 KODE =    1 T =  338.097     P =  100000.     Q =  0.00000    

      UOS BLOCK B1       MODEL: BATCHOP      HIERARCHY: B2                        TIME =      0.36

      UOS BLOCK B1       MODEL: BATCHOP      HIERARCHY: B2                        TIME =      0.45

      Integrating from 0.50000E-01 to 0.60000E-01 by 0.10000E-01 HR

      UOS BLOCK B2       MODEL: MIXER        HIERARCHY: B2                        TIME =      0.50
      KODE = 1   NO. TEMP ITER =    1     TEMP =  338.097    
      KPHASE =    2 KODE =    1 T =  338.097     P =  100000.     Q =  0.00000    

      UOS BLOCK B1       MODEL: BATCHOP      HIERARCHY: B2                        TIME =      0.50

      UOS BLOCK B1       MODEL: BATCHOP      HIERARCHY: B2                        TIME =      0.50

      Integrating from 0.60000E-01 to 0.70000E-01 by 0.10000E-01 HR

      UOS BLOCK B2       MODEL: MIXER        HIERARCHY: B2                        TIME =      0.50
      KODE = 1   NO. TEMP ITER =    1     TEMP =  338.097    
      KPHASE =    2 KODE =    1 T =  338.097     P =  100000.     Q =  0.00000    

      UOS BLOCK B1       MODEL: BATCHOP      HIERARCHY: B2                        TIME =      0.50

      UOS BLOCK B1       MODEL: BATCHOP      HIERARCHY: B2                        TIME =      0.50

      Integrating from 0.70000E-01 to 0.80000E-01 by 0.10000E-01 HR

      UOS BLOCK B2       MODEL: MIXER        HIERARCHY: B2                        TIME =      0.50
      KODE = 1   NO. TEMP ITER =    1     TEMP =  338.097    
      KPHASE =    2 KODE =    1 T =  338.097     P =  100000.     Q =  0.00000    

      UOS BLOCK B1       MODEL: BATCHOP      HIERARCHY: B2                        TIME =      0.50

      UOS BLOCK B1       MODEL: BATCHOP      HIERARCHY: B2                        TIME =      0.50

      Integrating from 0.80000E-01 to 0.90000E-01 by 0.10000E-01 HR

      UOS BLOCK B2       MODEL: MIXER        HIERARCHY: B2                        TIME =      0.50
      KODE = 1   NO. TEMP ITER =    1     TEMP =  338.097    
      KPHASE =    2 KODE =    1 T =  338.097     P =  100000.     Q =  0.00000    

      UOS BLOCK B1       MODEL: BATCHOP      HIERARCHY: B2                        TIME =      0.50

      UOS BLOCK B1       MODEL: BATCHOP      HIERARCHY: B2                        TIME =      0.50

      Integrating from 0.90000E-01 to 0.10000     by 0.10000E-01 HR

      UOS BLOCK B2       MODEL: MIXER        HIERARCHY: B2                        TIME =      0.50
      KODE = 1   NO. TEMP ITER =    1     TEMP =  338.097    
      KPHASE =    2 KODE =    1 T =  338.097     P =  100000.     Q =  0.00000    

      UOS BLOCK B1       MODEL: BATCHOP      HIERARCHY: B2                        TIME =      0.50

      UOS BLOCK B1       MODEL: BATCHOP      HIERARCHY: B2                        TIME =      0.60

      Integrating from 0.10000     to 0.11000     by 0.10000E-01 HR

      UOS BLOCK B2       MODEL: MIXER        HIERARCHY: B2                        TIME =      0.66
      KODE = 1   NO. TEMP ITER =    1     TEMP =  338.097    
      KPHASE =    2 KODE =    1 T =  338.097     P =  100000.     Q =  0.00000    

      UOS BLOCK B1       MODEL: BATCHOP      HIERARCHY: B2                        TIME =      0.66

      UOS BLOCK B1       MODEL: BATCHOP      HIERARCHY: B2                        TIME =      0.66

      Integrating from 0.11000     to 0.12000     by 0.10000E-01 HR

      UOS BLOCK B2       MODEL: MIXER        HIERARCHY: B2                        TIME =      0.66
      KODE = 1   NO. TEMP ITER =    1     TEMP =  338.097    
      KPHASE =    2 KODE =    1 T =  338.097     P =  100000.     Q =  0.00000    

      UOS BLOCK B1       MODEL: BATCHOP      HIERARCHY: B2                        TIME =      0.66

      UOS BLOCK B1       MODEL: BATCHOP      HIERARCHY: B2                        TIME =      0.66

      Integrating from 0.12000     to 0.13000     by 0.10000E-01 HR

      UOS BLOCK B2       MODEL: MIXER        HIERARCHY: B2                        TIME =      0.66
      KODE = 1   NO. TEMP ITER =    1     TEMP =  338.097    
      KPHASE =    2 KODE =    1 T =  338.097     P =  100000.     Q =  0.00000    

      UOS BLOCK B1       MODEL: BATCHOP      HIERARCHY: B2                        TIME =      0.66

      UOS BLOCK B1       MODEL: BATCHOP      HIERARCHY: B2                        TIME =      0.66

      Integrating from 0.13000     to 0.14000     by 0.10000E-01 HR

      UOS BLOCK B2       MODEL: MIXER        HIERARCHY: B2                        TIME =      0.66
      KODE = 1   NO. TEMP ITER =    1     TEMP =  338.097    
      KPHASE =    2 KODE =    1 T =  338.097     P =  100000.     Q =  0.00000    

      UOS BLOCK B1       MODEL: BATCHOP      HIERARCHY: B2                        TIME =      0.66

      UOS BLOCK B1       MODEL: BATCHOP      HIERARCHY: B2                        TIME =      0.67

      Integrating from 0.14000     to 0.15000     by 0.10000E-01 HR

      UOS BLOCK B2       MODEL: MIXER        HIERARCHY: B2                        TIME =      0.88
      KODE = 1   NO. TEMP ITER =    1     TEMP =  338.097    
      KPHASE =    2 KODE =    1 T =  338.097     P =  100000.     Q =  0.00000    

      UOS BLOCK B1       MODEL: BATCHOP      HIERARCHY: B2                        TIME =      0.88

      UOS BLOCK B1       MODEL: BATCHOP      HIERARCHY: B2                        TIME =      1.16

      Integrating from 0.15000     to 0.16000     by 0.10000E-01 HR

      UOS BLOCK B2       MODEL: MIXER        HIERARCHY: B2                        TIME =      1.32
      KODE = 1   NO. TEMP ITER =    1     TEMP =  338.097    
      KPHASE =    2 KODE =    1 T =  338.097     P =  100000.     Q =  0.00000    

      UOS BLOCK B1       MODEL: BATCHOP      HIERARCHY: B2                        TIME =      1.33

      UOS BLOCK B1       MODEL: BATCHOP      HIERARCHY: B2                        TIME =      1.33

      Integrating from 0.16000     to 0.17000     by 0.10000E-01 HR

      UOS BLOCK B2       MODEL: MIXER        HIERARCHY: B2                        TIME =      1.33
      KODE = 1   NO. TEMP ITER =    1     TEMP =  338.097    
      KPHASE =    2 KODE =    1 T =  338.097     P =  100000.     Q =  0.00000    

      UOS BLOCK B1       MODEL: BATCHOP      HIERARCHY: B2                        TIME =      1.33

      UOS BLOCK B1       MODEL: BATCHOP      HIERARCHY: B2                        TIME =      1.33

      Integrating from 0.17000     to 0.18000     by 0.10000E-01 HR

      UOS BLOCK B2       MODEL: MIXER        HIERARCHY: B2                        TIME =      1.33
      KODE = 1   NO. TEMP ITER =    1     TEMP =  338.097    
      KPHASE =    2 KODE =    1 T =  338.097     P =  100000.     Q =  0.00000    

      UOS BLOCK B1       MODEL: BATCHOP      HIERARCHY: B2                        TIME =      1.33

      UOS BLOCK B1       MODEL: BATCHOP      HIERARCHY: B2                        TIME =      1.34

      Integrating from 0.18000     to 0.19000     by 0.10000E-01 HR

      UOS BLOCK B2       MODEL: MIXER        HIERARCHY: B2                        TIME =      1.34
      KODE = 1   NO. TEMP ITER =    1     TEMP =  338.097    
      KPHASE =    2 KODE =    1 T =  338.097     P =  100000.     Q =  0.00000    

      UOS BLOCK B1       MODEL: BATCHOP      HIERARCHY: B2                        TIME =      1.34

      UOS BLOCK B1       MODEL: BATCHOP      HIERARCHY: B2                        TIME =      1.35

      Integrating from 0.19000     to 0.20000     by 0.10000E-01 HR

      UOS BLOCK B2       MODEL: MIXER        HIERARCHY: B2                        TIME =      1.35
      KODE = 1   NO. TEMP ITER =    1     TEMP =  338.097    
      KPHASE =    2 KODE =    1 T =  338.097     P =  100000.     Q =  0.00000    

      UOS BLOCK B1       MODEL: BATCHOP      HIERARCHY: B2                        TIME =      1.35

      UOS BLOCK B1       MODEL: BATCHOP      HIERARCHY: B2                        TIME =      1.52

      Integrating from 0.20000     to 0.21000     by 0.10000E-01 HR

      UOS BLOCK B2       MODEL: MIXER        HIERARCHY: B2                        TIME =      1.58
      KODE = 1   NO. TEMP ITER =    1     TEMP =  338.097    
      KPHASE =    2 KODE =    1 T =  338.097     P =  100000.     Q =  0.00000    

      UOS BLOCK B1       MODEL: BATCHOP      HIERARCHY: B2                        TIME =      1.58

      UOS BLOCK B1       MODEL: BATCHOP      HIERARCHY: B2                        TIME =      1.59

      Integrating from 0.21000     to 0.22000     by 0.10000E-01 HR

      UOS BLOCK B2       MODEL: MIXER        HIERARCHY: B2                        TIME =      1.59
      KODE = 1   NO. TEMP ITER =    1     TEMP =  338.097    
      KPHASE =    2 KODE =    1 T =  338.097     P =  100000.     Q =  0.00000    

      UOS BLOCK B1       MODEL: BATCHOP      HIERARCHY: B2                        TIME =      1.59

      UOS BLOCK B1       MODEL: BATCHOP      HIERARCHY: B2                        TIME =      1.59

      Integrating from 0.22000     to 0.23000     by 0.10000E-01 HR

      UOS BLOCK B2       MODEL: MIXER        HIERARCHY: B2                        TIME =      1.59
      KODE = 1   NO. TEMP ITER =    1     TEMP =  338.097    
      KPHASE =    2 KODE =    1 T =  338.097     P =  100000.     Q =  0.00000    

      UOS BLOCK B1       MODEL: BATCHOP      HIERARCHY: B2                        TIME =      1.59

      UOS BLOCK B1       MODEL: BATCHOP      HIERARCHY: B2                        TIME =      1.59

      Integrating from 0.23000     to 0.24000     by 0.10000E-01 HR

      UOS BLOCK B2       MODEL: MIXER        HIERARCHY: B2                        TIME =      1.59
      KODE = 1   NO. TEMP ITER =    1     TEMP =  338.097    
      KPHASE =    2 KODE =    1 T =  338.097     P =  100000.     Q =  0.00000    

      UOS BLOCK B1       MODEL: BATCHOP      HIERARCHY: B2                        TIME =      1.59

      UOS BLOCK B1       MODEL: BATCHOP      HIERARCHY: B2                        TIME =      1.59

      Integrating from 0.24000     to 0.25000     by 0.10000E-01 HR

      UOS BLOCK B2       MODEL: MIXER        HIERARCHY: B2                        TIME =      1.59
      KODE = 1   NO. TEMP ITER =    1     TEMP =  338.097    
      KPHASE =    2 KODE =    1 T =  338.097     P =  100000.     Q =  0.00000    

      UOS BLOCK B1       MODEL: BATCHOP      HIERARCHY: B2                        TIME =      1.59

      UOS BLOCK B1       MODEL: BATCHOP      HIERARCHY: B2                        TIME =      1.69

      Integrating from 0.25000     to 0.26000     by 0.10000E-01 HR

      UOS BLOCK B2       MODEL: MIXER        HIERARCHY: B2                        TIME =      1.75
      KODE = 1   NO. TEMP ITER =    1     TEMP =  338.097    
      KPHASE =    2 KODE =    1 T =  338.097     P =  100000.     Q =  0.00000    

      UOS BLOCK B1       MODEL: BATCHOP      HIERARCHY: B2                        TIME =      1.75

      UOS BLOCK B1       MODEL: BATCHOP      HIERARCHY: B2                        TIME =      1.75

      Integrating from 0.26000     to 0.27000     by 0.10000E-01 HR

      UOS BLOCK B2       MODEL: MIXER        HIERARCHY: B2                        TIME =      1.75
      KODE = 1   NO. TEMP ITER =    1     TEMP =  338.097    
      KPHASE =    2 KODE =    1 T =  338.097     P =  100000.     Q =  0.00000    

      UOS BLOCK B1       MODEL: BATCHOP      HIERARCHY: B2                        TIME =      1.76

      UOS BLOCK B1       MODEL: BATCHOP      HIERARCHY: B2                        TIME =      1.76

      Integrating from 0.27000     to 0.28000     by 0.10000E-01 HR

      UOS BLOCK B2       MODEL: MIXER        HIERARCHY: B2                        TIME =      1.76
      KODE = 1   NO. TEMP ITER =    1     TEMP =  338.097    
      KPHASE =    2 KODE =    1 T =  338.097     P =  100000.     Q =  0.00000    

      UOS BLOCK B1       MODEL: BATCHOP      HIERARCHY: B2                        TIME =      1.76

      UOS BLOCK B1       MODEL: BATCHOP      HIERARCHY: B2                        TIME =      1.76

      Integrating from 0.28000     to 0.29000     by 0.10000E-01 HR

      UOS BLOCK B2       MODEL: MIXER        HIERARCHY: B2                        TIME =      1.76
      KODE = 1   NO. TEMP ITER =    1     TEMP =  338.097    
      KPHASE =    2 KODE =    1 T =  338.097     P =  100000.     Q =  0.00000    

      UOS BLOCK B1       MODEL: BATCHOP      HIERARCHY: B2                        TIME =      1.76

      UOS BLOCK B1       MODEL: BATCHOP      HIERARCHY: B2                        TIME =      1.76

      Integrating from 0.29000     to 0.30000     by 0.10000E-01 HR

      UOS BLOCK B2       MODEL: MIXER        HIERARCHY: B2                        TIME =      1.76
      KODE = 1   NO. TEMP ITER =    1     TEMP =  338.097    
      KPHASE =    2 KODE =    1 T =  338.097     P =  100000.     Q =  0.00000    

      UOS BLOCK B1       MODEL: BATCHOP      HIERARCHY: B2                        TIME =      1.77

      UOS BLOCK B1       MODEL: BATCHOP      HIERARCHY: B2                        TIME =      1.87

      Integrating from 0.30000     to 0.31000     by 0.10000E-01 HR

      UOS BLOCK B2       MODEL: MIXER        HIERARCHY: B2                        TIME =      1.93
      KODE = 1   NO. TEMP ITER =    1     TEMP =  338.097    
      KPHASE =    2 KODE =    1 T =  338.097     P =  100000.     Q =  0.00000    

      UOS BLOCK B1       MODEL: BATCHOP      HIERARCHY: B2                        TIME =      1.93

      UOS BLOCK B1       MODEL: BATCHOP      HIERARCHY: B2                        TIME =      1.93

      Integrating from 0.31000     to 0.32000     by 0.10000E-01 HR

      UOS BLOCK B2       MODEL: MIXER        HIERARCHY: B2                        TIME =      1.93
      KODE = 1   NO. TEMP ITER =    1     TEMP =  338.097    
      KPHASE =    2 KODE =    1 T =  338.097     P =  100000.     Q =  0.00000    

      UOS BLOCK B1       MODEL: BATCHOP      HIERARCHY: B2                        TIME =      1.93

      UOS BLOCK B1       MODEL: BATCHOP      HIERARCHY: B2                        TIME =      1.93

      Integrating from 0.32000     to 0.33000     by 0.10000E-01 HR

      UOS BLOCK B2       MODEL: MIXER        HIERARCHY: B2                        TIME =      1.93
      KODE = 1   NO. TEMP ITER =    1     TEMP =  338.097    
      KPHASE =    2 KODE =    1 T =  338.097     P =  100000.     Q =  0.00000    

      UOS BLOCK B1       MODEL: BATCHOP      HIERARCHY: B2                        TIME =      1.93

      UOS BLOCK B1       MODEL: BATCHOP      HIERARCHY: B2                        TIME =      1.93

      Integrating from 0.33000     to 0.34000     by 0.10000E-01 HR

      UOS BLOCK B2       MODEL: MIXER        HIERARCHY: B2                        TIME =      1.93
      KODE = 1   NO. TEMP ITER =    1     TEMP =  338.097    
      KPHASE =    2 KODE =    1 T =  338.097     P =  100000.     Q =  0.00000    

      UOS BLOCK B1       MODEL: BATCHOP      HIERARCHY: B2                        TIME =      1.93

      UOS BLOCK B1       MODEL: BATCHOP      HIERARCHY: B2                        TIME =      1.93

      Integrating from 0.34000     to 0.35000     by 0.10000E-01 HR

      UOS BLOCK B2       MODEL: MIXER        HIERARCHY: B2                        TIME =      1.93
      KODE = 1   NO. TEMP ITER =    1     TEMP =  338.097    
      KPHASE =    2 KODE =    1 T =  338.097     P =  100000.     Q =  0.00000    

      UOS BLOCK B1       MODEL: BATCHOP      HIERARCHY: B2                        TIME =      1.93

      UOS BLOCK B1       MODEL: BATCHOP      HIERARCHY: B2                        TIME =      2.04

      Integrating from 0.35000     to 0.36000     by 0.10000E-01 HR

      UOS BLOCK B2       MODEL: MIXER        HIERARCHY: B2                        TIME =      2.09
      KODE = 1   NO. TEMP ITER =    1     TEMP =  338.097    
      KPHASE =    2 KODE =    1 T =  338.097     P =  100000.     Q =  0.00000    

      UOS BLOCK B1       MODEL: BATCHOP      HIERARCHY: B2                        TIME =      2.10

      UOS BLOCK B1       MODEL: BATCHOP      HIERARCHY: B2                        TIME =      2.10

      Integrating from 0.36000     to 0.37000     by 0.10000E-01 HR

      UOS BLOCK B2       MODEL: MIXER        HIERARCHY: B2                        TIME =      2.10
      KODE = 1   NO. TEMP ITER =    1     TEMP =  338.097    
      KPHASE =    2 KODE =    1 T =  338.097     P =  100000.     Q =  0.00000    

      UOS BLOCK B1       MODEL: BATCHOP      HIERARCHY: B2                        TIME =      2.10

      UOS BLOCK B1       MODEL: BATCHOP      HIERARCHY: B2                        TIME =      2.10

      Integrating from 0.37000     to 0.38000     by 0.10000E-01 HR

      UOS BLOCK B2       MODEL: MIXER        HIERARCHY: B2                        TIME =      2.10
      KODE = 1   NO. TEMP ITER =    1     TEMP =  338.097    
      KPHASE =    2 KODE =    1 T =  338.097     P =  100000.     Q =  0.00000    

      UOS BLOCK B1       MODEL: BATCHOP      HIERARCHY: B2                        TIME =      2.10

      UOS BLOCK B1       MODEL: BATCHOP      HIERARCHY: B2                        TIME =      2.10

      Integrating from 0.38000     to 0.39000     by 0.10000E-01 HR

      UOS BLOCK B2       MODEL: MIXER        HIERARCHY: B2                        TIME =      2.10
      KODE = 1   NO. TEMP ITER =    1     TEMP =  338.097    
      KPHASE =    2 KODE =    1 T =  338.097     P =  100000.     Q =  0.00000    

      UOS BLOCK B1       MODEL: BATCHOP      HIERARCHY: B2                        TIME =      2.10

      UOS BLOCK B1       MODEL: BATCHOP      HIERARCHY: B2                        TIME =      2.10

      Integrating from 0.39000     to 0.40000     by 0.10000E-01 HR

      UOS BLOCK B2       MODEL: MIXER        HIERARCHY: B2                        TIME =      2.10
      KODE = 1   NO. TEMP ITER =    1     TEMP =  338.097    
      KPHASE =    2 KODE =    1 T =  338.097     P =  100000.     Q =  0.00000    

      UOS BLOCK B1       MODEL: BATCHOP      HIERARCHY: B2                        TIME =      2.10

      UOS BLOCK B1       MODEL: BATCHOP      HIERARCHY: B2                        TIME =      2.20

      Integrating from 0.40000     to 0.41000     by 0.10000E-01 HR

      UOS BLOCK B2       MODEL: MIXER        HIERARCHY: B2                        TIME =      2.27
      KODE = 1   NO. TEMP ITER =    1     TEMP =  338.097    
      KPHASE =    2 KODE =    1 T =  338.097     P =  100000.     Q =  0.00000    

      UOS BLOCK B1       MODEL: BATCHOP      HIERARCHY: B2                        TIME =      2.27

      UOS BLOCK B1       MODEL: BATCHOP      HIERARCHY: B2                        TIME =      2.27

      Integrating from 0.41000     to 0.42000     by 0.10000E-01 HR

      UOS BLOCK B2       MODEL: MIXER        HIERARCHY: B2                        TIME =      2.27
      KODE = 1   NO. TEMP ITER =    1     TEMP =  338.097    
      KPHASE =    2 KODE =    1 T =  338.097     P =  100000.     Q =  0.00000    

      UOS BLOCK B1       MODEL: BATCHOP      HIERARCHY: B2                        TIME =      2.27

      UOS BLOCK B1       MODEL: BATCHOP      HIERARCHY: B2                        TIME =      2.27

      Integrating from 0.42000     to 0.43000     by 0.10000E-01 HR

      UOS BLOCK B2       MODEL: MIXER        HIERARCHY: B2                        TIME =      2.27
      KODE = 1   NO. TEMP ITER =    1     TEMP =  338.097    
      KPHASE =    2 KODE =    1 T =  338.097     P =  100000.     Q =  0.00000    

      UOS BLOCK B1       MODEL: BATCHOP      HIERARCHY: B2                        TIME =      2.27

      UOS BLOCK B1       MODEL: BATCHOP      HIERARCHY: B2                        TIME =      2.27

      Integrating from 0.43000     to 0.44000     by 0.10000E-01 HR

      UOS BLOCK B2       MODEL: MIXER        HIERARCHY: B2                        TIME =      2.27
      KODE = 1   NO. TEMP ITER =    1     TEMP =  338.097    
      KPHASE =    2 KODE =    1 T =  338.097     P =  100000.     Q =  0.00000    

      UOS BLOCK B1       MODEL: BATCHOP      HIERARCHY: B2                        TIME =      2.27

      UOS BLOCK B1       MODEL: BATCHOP      HIERARCHY: B2                        TIME =      2.27

      Integrating from 0.44000     to 0.45000     by 0.10000E-01 HR

      UOS BLOCK B2       MODEL: MIXER        HIERARCHY: B2                        TIME =      2.27
      KODE = 1   NO. TEMP ITER =    1     TEMP =  338.097    
      KPHASE =    2 KODE =    1 T =  338.097     P =  100000.     Q =  0.00000    

      UOS BLOCK B1       MODEL: BATCHOP      HIERARCHY: B2                        TIME =      2.27

      UOS BLOCK B1       MODEL: BATCHOP      HIERARCHY: B2                        TIME =      2.36

      Integrating from 0.45000     to 0.46000     by 0.10000E-01 HR

      UOS BLOCK B2       MODEL: MIXER        HIERARCHY: B2                        TIME =      2.43
      KODE = 1   NO. TEMP ITER =    1     TEMP =  338.097    
      KPHASE =    2 KODE =    1 T =  338.097     P =  100000.     Q =  0.00000    

      UOS BLOCK B1       MODEL: BATCHOP      HIERARCHY: B2                        TIME =      2.43

      UOS BLOCK B1       MODEL: BATCHOP      HIERARCHY: B2                        TIME =      2.43

      Integrating from 0.46000     to 0.47000     by 0.10000E-01 HR

      UOS BLOCK B2       MODEL: MIXER        HIERARCHY: B2                        TIME =      2.43
      KODE = 1   NO. TEMP ITER =    1     TEMP =  338.097    
      KPHASE =    2 KODE =    1 T =  338.097     P =  100000.     Q =  0.00000    

      UOS BLOCK B1       MODEL: BATCHOP      HIERARCHY: B2                        TIME =      2.43

      UOS BLOCK B1       MODEL: BATCHOP      HIERARCHY: B2                        TIME =      2.43

      Integrating from 0.47000     to 0.48000     by 0.10000E-01 HR

      UOS BLOCK B2       MODEL: MIXER        HIERARCHY: B2                        TIME =      2.43
      KODE = 1   NO. TEMP ITER =    1     TEMP =  338.097    
      KPHASE =    2 KODE =    1 T =  338.097     P =  100000.     Q =  0.00000    

      UOS BLOCK B1       MODEL: BATCHOP      HIERARCHY: B2                        TIME =      2.43

      UOS BLOCK B1       MODEL: BATCHOP      HIERARCHY: B2                        TIME =      2.43

      Integrating from 0.48000     to 0.49000     by 0.10000E-01 HR

      UOS BLOCK B2       MODEL: MIXER        HIERARCHY: B2                        TIME =      2.43
      KODE = 1   NO. TEMP ITER =    1     TEMP =  338.097    
      KPHASE =    2 KODE =    1 T =  338.097     P =  100000.     Q =  0.00000    

      UOS BLOCK B1       MODEL: BATCHOP      HIERARCHY: B2                        TIME =      2.43

      UOS BLOCK B1       MODEL: BATCHOP      HIERARCHY: B2                        TIME =      2.43

      Integrating from 0.49000     to 0.50000     by 0.10000E-01 HR

      UOS BLOCK B2       MODEL: MIXER        HIERARCHY: B2                        TIME =      2.43
      KODE = 1   NO. TEMP ITER =    1     TEMP =  338.097    
      KPHASE =    2 KODE =    1 T =  338.097     P =  100000.     Q =  0.00000    

      UOS BLOCK B1       MODEL: BATCHOP      HIERARCHY: B2                        TIME =      2.44

      UOS BLOCK B1       MODEL: BATCHOP      HIERARCHY: B2                        TIME =      2.53

      Integrating from 0.50000     to 0.51000     by 0.10000E-01 HR

      UOS BLOCK B2       MODEL: MIXER        HIERARCHY: B2                        TIME =      2.60
      KODE = 1   NO. TEMP ITER =    1     TEMP =  338.097    
      KPHASE =    2 KODE =    1 T =  338.097     P =  100000.     Q =  0.00000    

      UOS BLOCK B1       MODEL: BATCHOP      HIERARCHY: B2                        TIME =      2.60

      UOS BLOCK B1       MODEL: BATCHOP      HIERARCHY: B2                        TIME =      2.60

      Integrating from 0.51000     to 0.52000     by 0.10000E-01 HR

      UOS BLOCK B2       MODEL: MIXER        HIERARCHY: B2                        TIME =      2.60
      KODE = 1   NO. TEMP ITER =    1     TEMP =  338.097    
      KPHASE =    2 KODE =    1 T =  338.097     P =  100000.     Q =  0.00000    

      UOS BLOCK B1       MODEL: BATCHOP      HIERARCHY: B2                        TIME =      2.60

      UOS BLOCK B1       MODEL: BATCHOP      HIERARCHY: B2                        TIME =      2.60

      Integrating from 0.52000     to 0.53000     by 0.10000E-01 HR

      UOS BLOCK B2       MODEL: MIXER        HIERARCHY: B2                        TIME =      2.60
      KODE = 1   NO. TEMP ITER =    1     TEMP =  338.097    
      KPHASE =    2 KODE =    1 T =  338.097     P =  100000.     Q =  0.00000    

      UOS BLOCK B1       MODEL: BATCHOP      HIERARCHY: B2                        TIME =      2.60

      UOS BLOCK B1       MODEL: BATCHOP      HIERARCHY: B2                        TIME =      2.60

      Integrating from 0.53000     to 0.54000     by 0.10000E-01 HR

      UOS BLOCK B2       MODEL: MIXER        HIERARCHY: B2                        TIME =      2.60
      KODE = 1   NO. TEMP ITER =    1     TEMP =  338.097    
      KPHASE =    2 KODE =    1 T =  338.097     P =  100000.     Q =  0.00000    

      UOS BLOCK B1       MODEL: BATCHOP      HIERARCHY: B2                        TIME =      2.60

      UOS BLOCK B1       MODEL: BATCHOP      HIERARCHY: B2                        TIME =      2.60

      Integrating from 0.54000     to 0.55000     by 0.10000E-01 HR

      UOS BLOCK B2       MODEL: MIXER        HIERARCHY: B2                        TIME =      2.60
      KODE = 1   NO. TEMP ITER =    1     TEMP =  338.097    
      KPHASE =    2 KODE =    1 T =  338.097     P =  100000.     Q =  0.00000    

      UOS BLOCK B1       MODEL: BATCHOP      HIERARCHY: B2                        TIME =      2.60

      UOS BLOCK B1       MODEL: BATCHOP      HIERARCHY: B2                        TIME =      2.68

      Integrating from 0.55000     to 0.56000     by 0.10000E-01 HR

      UOS BLOCK B2       MODEL: MIXER        HIERARCHY: B2                        TIME =      2.73
      KODE = 1   NO. TEMP ITER =    1     TEMP =  338.097    
      KPHASE =    2 KODE =    1 T =  338.097     P =  100000.     Q =  0.00000    

      UOS BLOCK B1       MODEL: BATCHOP      HIERARCHY: B2                        TIME =      2.73

      UOS BLOCK B1       MODEL: BATCHOP      HIERARCHY: B2                        TIME =      2.73

      Integrating from 0.56000     to 0.57000     by 0.10000E-01 HR

      UOS BLOCK B2       MODEL: MIXER        HIERARCHY: B2                        TIME =      2.73
      KODE = 1   NO. TEMP ITER =    1     TEMP =  338.097    
      KPHASE =    2 KODE =    1 T =  338.097     P =  100000.     Q =  0.00000    

      UOS BLOCK B1       MODEL: BATCHOP      HIERARCHY: B2                        TIME =      2.73

      UOS BLOCK B1       MODEL: BATCHOP      HIERARCHY: B2                        TIME =      2.73

      Integrating from 0.57000     to 0.58000     by 0.10000E-01 HR

      UOS BLOCK B2       MODEL: MIXER        HIERARCHY: B2                        TIME =      2.73
      KODE = 1   NO. TEMP ITER =    1     TEMP =  338.097    
      KPHASE =    2 KODE =    1 T =  338.097     P =  100000.     Q =  0.00000    

      UOS BLOCK B1       MODEL: BATCHOP      HIERARCHY: B2                        TIME =      2.73

      UOS BLOCK B1       MODEL: BATCHOP      HIERARCHY: B2                        TIME =      2.73

      Integrating from 0.58000     to 0.59000     by 0.10000E-01 HR

      UOS BLOCK B2       MODEL: MIXER        HIERARCHY: B2                        TIME =      2.73
      KODE = 1   NO. TEMP ITER =    1     TEMP =  338.097    
      KPHASE =    2 KODE =    1 T =  338.097     P =  100000.     Q =  0.00000    

      UOS BLOCK B1       MODEL: BATCHOP      HIERARCHY: B2                        TIME =      2.73

      UOS BLOCK B1       MODEL: BATCHOP      HIERARCHY: B2                        TIME =      2.73

      Integrating from 0.59000     to 0.60000     by 0.10000E-01 HR

      UOS BLOCK B2       MODEL: MIXER        HIERARCHY: B2                        TIME =      2.73
      KODE = 1   NO. TEMP ITER =    1     TEMP =  338.097    
      KPHASE =    2 KODE =    1 T =  338.097     P =  100000.     Q =  0.00000    

      UOS BLOCK B1       MODEL: BATCHOP      HIERARCHY: B2                        TIME =      2.74

      UOS BLOCK B1       MODEL: BATCHOP      HIERARCHY: B2                        TIME =      2.81

      Integrating from 0.60000     to 0.61000     by 0.10000E-01 HR

      UOS BLOCK B2       MODEL: MIXER        HIERARCHY: B2                        TIME =      2.87
      KODE = 1   NO. TEMP ITER =    1     TEMP =  338.097    
      KPHASE =    2 KODE =    1 T =  338.097     P =  100000.     Q =  0.00000    

      UOS BLOCK B1       MODEL: BATCHOP      HIERARCHY: B2                        TIME =      2.87

      UOS BLOCK B1       MODEL: BATCHOP      HIERARCHY: B2                        TIME =      2.88

      Integrating from 0.61000     to 0.62000     by 0.10000E-01 HR

      UOS BLOCK B2       MODEL: MIXER        HIERARCHY: B2                        TIME =      2.88
      KODE = 1   NO. TEMP ITER =    1     TEMP =  338.097    
      KPHASE =    2 KODE =    1 T =  338.097     P =  100000.     Q =  0.00000    

      UOS BLOCK B1       MODEL: BATCHOP      HIERARCHY: B2                        TIME =      2.88

      UOS BLOCK B1       MODEL: BATCHOP      HIERARCHY: B2                        TIME =      2.88

      Integrating from 0.62000     to 0.63000     by 0.10000E-01 HR

      UOS BLOCK B2       MODEL: MIXER        HIERARCHY: B2                        TIME =      2.88
      KODE = 1   NO. TEMP ITER =    1     TEMP =  338.097    
      KPHASE =    2 KODE =    1 T =  338.097     P =  100000.     Q =  0.00000    

      UOS BLOCK B1       MODEL: BATCHOP      HIERARCHY: B2                        TIME =      2.88

      UOS BLOCK B1       MODEL: BATCHOP      HIERARCHY: B2                        TIME =      2.88

      Integrating from 0.63000     to 0.64000     by 0.10000E-01 HR

      UOS BLOCK B2       MODEL: MIXER        HIERARCHY: B2                        TIME =      2.88
      KODE = 1   NO. TEMP ITER =    1     TEMP =  338.097    
      KPHASE =    2 KODE =    1 T =  338.097     P =  100000.     Q =  0.00000    

      UOS BLOCK B1       MODEL: BATCHOP      HIERARCHY: B2                        TIME =      2.88

      UOS BLOCK B1       MODEL: BATCHOP      HIERARCHY: B2                        TIME =      2.88

      Integrating from 0.64000     to 0.65000     by 0.10000E-01 HR

      UOS BLOCK B2       MODEL: MIXER        HIERARCHY: B2                        TIME =      2.88
      KODE = 1   NO. TEMP ITER =    1     TEMP =  338.097    
      KPHASE =    2 KODE =    1 T =  338.097     P =  100000.     Q =  0.00000    

      UOS BLOCK B1       MODEL: BATCHOP      HIERARCHY: B2                        TIME =      2.88

      UOS BLOCK B1       MODEL: BATCHOP      HIERARCHY: B2                        TIME =      2.95

      Integrating from 0.65000     to 0.66000     by 0.10000E-01 HR

      UOS BLOCK B2       MODEL: MIXER        HIERARCHY: B2                        TIME =      2.98
      KODE = 1   NO. TEMP ITER =    1     TEMP =  338.097    
      KPHASE =    2 KODE =    1 T =  338.097     P =  100000.     Q =  0.00000    

      UOS BLOCK B1       MODEL: BATCHOP      HIERARCHY: B2                        TIME =      2.98

      UOS BLOCK B1       MODEL: BATCHOP      HIERARCHY: B2                        TIME =      2.98

      Integrating from 0.66000     to 0.67000     by 0.10000E-01 HR

      UOS BLOCK B2       MODEL: MIXER        HIERARCHY: B2                        TIME =      2.98
      KODE = 1   NO. TEMP ITER =    1     TEMP =  338.097    
      KPHASE =    2 KODE =    1 T =  338.097     P =  100000.     Q =  0.00000    

      UOS BLOCK B1       MODEL: BATCHOP      HIERARCHY: B2                        TIME =      2.98

      UOS BLOCK B1       MODEL: BATCHOP      HIERARCHY: B2                        TIME =      2.98

      Integrating from 0.67000     to 0.68000     by 0.10000E-01 HR

      UOS BLOCK B2       MODEL: MIXER        HIERARCHY: B2                        TIME =      2.98
      KODE = 1   NO. TEMP ITER =    1     TEMP =  338.097    
      KPHASE =    2 KODE =    1 T =  338.097     P =  100000.     Q =  0.00000    

      UOS BLOCK B1       MODEL: BATCHOP      HIERARCHY: B2                        TIME =      2.98

      UOS BLOCK B1       MODEL: BATCHOP      HIERARCHY: B2                        TIME =      2.99

      Integrating from 0.68000     to 0.69000     by 0.10000E-01 HR

      UOS BLOCK B2       MODEL: MIXER        HIERARCHY: B2                        TIME =      2.99
      KODE = 1   NO. TEMP ITER =    1     TEMP =  338.097    
      KPHASE =    2 KODE =    1 T =  338.097     P =  100000.     Q =  0.00000    

      UOS BLOCK B1       MODEL: BATCHOP      HIERARCHY: B2                        TIME =      2.99

      UOS BLOCK B1       MODEL: BATCHOP      HIERARCHY: B2                        TIME =      2.99

      Integrating from 0.69000     to 0.70000     by 0.10000E-01 HR

      UOS BLOCK B2       MODEL: MIXER        HIERARCHY: B2                        TIME =      2.99
      KODE = 1   NO. TEMP ITER =    1     TEMP =  338.097    
      KPHASE =    2 KODE =    1 T =  338.097     P =  100000.     Q =  0.00000    

      UOS BLOCK B1       MODEL: BATCHOP      HIERARCHY: B2                        TIME =      2.99

      UOS BLOCK B1       MODEL: BATCHOP      HIERARCHY: B2                        TIME =      3.06

      Integrating from 0.70000     to 0.71000     by 0.10000E-01 HR

      UOS BLOCK B2       MODEL: MIXER        HIERARCHY: B2                        TIME =      3.11
      KODE = 1   NO. TEMP ITER =    1     TEMP =  338.097    
      KPHASE =    2 KODE =    1 T =  338.097     P =  100000.     Q =  0.00000    

      UOS BLOCK B1       MODEL: BATCHOP      HIERARCHY: B2                        TIME =      3.11

      UOS BLOCK B1       MODEL: BATCHOP      HIERARCHY: B2                        TIME =      3.11

      Integrating from 0.71000     to 0.72000     by 0.10000E-01 HR

      UOS BLOCK B2       MODEL: MIXER        HIERARCHY: B2                        TIME =      3.11
      KODE = 1   NO. TEMP ITER =    1     TEMP =  338.097    
      KPHASE =    2 KODE =    1 T =  338.097     P =  100000.     Q =  0.00000    

      UOS BLOCK B1       MODEL: BATCHOP      HIERARCHY: B2                        TIME =      3.11

      UOS BLOCK B1       MODEL: BATCHOP      HIERARCHY: B2                        TIME =      3.11

      Integrating from 0.72000     to 0.73000     by 0.10000E-01 HR

      UOS BLOCK B2       MODEL: MIXER        HIERARCHY: B2                        TIME =      3.11
      KODE = 1   NO. TEMP ITER =    1     TEMP =  338.097    
      KPHASE =    2 KODE =    1 T =  338.097     P =  100000.     Q =  0.00000    

      UOS BLOCK B1       MODEL: BATCHOP      HIERARCHY: B2                        TIME =      3.11

      UOS BLOCK B1       MODEL: BATCHOP      HIERARCHY: B2                        TIME =      3.12

      Integrating from 0.73000     to 0.74000     by 0.10000E-01 HR

      UOS BLOCK B2       MODEL: MIXER        HIERARCHY: B2                        TIME =      3.12
      KODE = 1   NO. TEMP ITER =    1     TEMP =  338.097    
      KPHASE =    2 KODE =    1 T =  338.097     P =  100000.     Q =  0.00000    

      UOS BLOCK B1       MODEL: BATCHOP      HIERARCHY: B2                        TIME =      3.12

      UOS BLOCK B1       MODEL: BATCHOP      HIERARCHY: B2                        TIME =      3.12

      Integrating from 0.74000     to 0.75000     by 0.10000E-01 HR

      UOS BLOCK B2       MODEL: MIXER        HIERARCHY: B2                        TIME =      3.12
      KODE = 1   NO. TEMP ITER =    1     TEMP =  338.097    
      KPHASE =    2 KODE =    1 T =  338.097     P =  100000.     Q =  0.00000    

      UOS BLOCK B1       MODEL: BATCHOP      HIERARCHY: B2                        TIME =      3.12

      UOS BLOCK B1       MODEL: BATCHOP      HIERARCHY: B2                        TIME =      3.21

      Integrating from 0.75000     to 0.76000     by 0.10000E-01 HR

      UOS BLOCK B2       MODEL: MIXER        HIERARCHY: B2                        TIME =      3.27
      KODE = 1   NO. TEMP ITER =    1     TEMP =  338.097    
      KPHASE =    2 KODE =    1 T =  338.097     P =  100000.     Q =  0.00000    

      UOS BLOCK B1       MODEL: BATCHOP      HIERARCHY: B2                        TIME =      3.27

      UOS BLOCK B1       MODEL: BATCHOP      HIERARCHY: B2                        TIME =      3.27

      Integrating from 0.76000     to 0.77000     by 0.10000E-01 HR

      UOS BLOCK B2       MODEL: MIXER        HIERARCHY: B2                        TIME =      3.28
      KODE = 1   NO. TEMP ITER =    1     TEMP =  338.097    
      KPHASE =    2 KODE =    1 T =  338.097     P =  100000.     Q =  0.00000    

      UOS BLOCK B1       MODEL: BATCHOP      HIERARCHY: B2                        TIME =      3.28

      UOS BLOCK B1       MODEL: BATCHOP      HIERARCHY: B2                        TIME =      3.28

      Integrating from 0.77000     to 0.78000     by 0.10000E-01 HR

      UOS BLOCK B2       MODEL: MIXER        HIERARCHY: B2                        TIME =      3.28
      KODE = 1   NO. TEMP ITER =    1     TEMP =  338.097    
      KPHASE =    2 KODE =    1 T =  338.097     P =  100000.     Q =  0.00000    

      UOS BLOCK B1       MODEL: BATCHOP      HIERARCHY: B2                        TIME =      3.28

      UOS BLOCK B1       MODEL: BATCHOP      HIERARCHY: B2                        TIME =      3.28

      Integrating from 0.78000     to 0.79000     by 0.10000E-01 HR

      UOS BLOCK B2       MODEL: MIXER        HIERARCHY: B2                        TIME =      3.28
      KODE = 1   NO. TEMP ITER =    1     TEMP =  338.097    
      KPHASE =    2 KODE =    1 T =  338.097     P =  100000.     Q =  0.00000    

      UOS BLOCK B1       MODEL: BATCHOP      HIERARCHY: B2                        TIME =      3.28

      UOS BLOCK B1       MODEL: BATCHOP      HIERARCHY: B2                        TIME =      3.28

      Integrating from 0.79000     to 0.80000     by 0.10000E-01 HR

      UOS BLOCK B2       MODEL: MIXER        HIERARCHY: B2                        TIME =      3.28
      KODE = 1   NO. TEMP ITER =    1     TEMP =  338.097    
      KPHASE =    2 KODE =    1 T =  338.097     P =  100000.     Q =  0.00000    

      UOS BLOCK B1       MODEL: BATCHOP      HIERARCHY: B2                        TIME =      3.28

      UOS BLOCK B1       MODEL: BATCHOP      HIERARCHY: B2                        TIME =      3.39

      Integrating from 0.80000     to 0.81000     by 0.10000E-01 HR

      UOS BLOCK B2       MODEL: MIXER        HIERARCHY: B2                        TIME =      3.43
      KODE = 1   NO. TEMP ITER =    1     TEMP =  338.097    
      KPHASE =    2 KODE =    1 T =  338.097     P =  100000.     Q =  0.00000    

      UOS BLOCK B1       MODEL: BATCHOP      HIERARCHY: B2                        TIME =      3.43

      UOS BLOCK B1       MODEL: BATCHOP      HIERARCHY: B2                        TIME =      3.43

      Integrating from 0.81000     to 0.82000     by 0.10000E-01 HR

      UOS BLOCK B2       MODEL: MIXER        HIERARCHY: B2                        TIME =      3.43
      KODE = 1   NO. TEMP ITER =    1     TEMP =  338.097    
      KPHASE =    2 KODE =    1 T =  338.097     P =  100000.     Q =  0.00000    

      UOS BLOCK B1       MODEL: BATCHOP      HIERARCHY: B2                        TIME =      3.43

[...]
                            H =  -197900929.376582      V =   1.00000000000000      L =   0.00000000000000    
                            ENTROPY =  -3297.83306519868      DENSITY =  0.207546739389321      MW =   32.1130349186789    
        GLYCEROL  0.174338346571462E-05  TRIOL-01  0.585037909978606E-10  TRILI-01  0.108235510399880E-10
        METHA-01  0.147829600891210E-02  METHY-01  0.350347582015866E-09  METHY-02  0.195575927132050E-09
        UREA       0.00000000000000      CALCI-01   0.00000000000000      LANTH-01   0.00000000000000    
        AMMON-01   0.00000000000000      GLYCE-01   0.00000000000000      NITROGEN   0.00000000000000    
        WATER      0.00000000000000    

 STREAM S11     
        SUBSTREAM MIXED     F =  0.643628551705798E-03  T =   373.150000000000      P =   20000.0000000000    
                            H =  -618913074.445769      V =   0.00000000000000      L =   1.00000000000000    
                            ENTROPY =  -6148.17597431309      DENSITY =   1006.75775384181      MW =   87.3001406300834    
        GLYCEROL  0.592241430557168E-03  TRIOL-01  0.236471513403688E-30  TRILI-01  0.437644810894856E-31
        METHA-01  0.513871211482226E-04  METHY-01  0.270984258288976E-15  METHY-02  0.136420852158919E-15
        UREA       0.00000000000000      CALCI-01   0.00000000000000      LANTH-01   0.00000000000000    
        AMMON-01   0.00000000000000      GLYCE-01   0.00000000000000      NITROGEN   0.00000000000000    
        WATER      0.00000000000000    

 STREAM S13     
        SUBSTREAM MIXED     F =  0.165290102711778E-02  T =   413.150000000000      P =   3000.00000000000    
                            H =  -305609015.694393      V =  0.656673370627472      L =  0.342295015195401    
                            ENTROPY =  -15533.1225331670      DENSITY =  0.700238045294271E-01  MW =   52.6481591958411    
                            S =  0.103161417712699E-02
        GLYCEROL  0.888362145835751E-04  TRIOL-01   0.00000000000000      TRILI-01   0.00000000000000    
        METHA-01  0.513871211482226E-04  METHY-01   0.00000000000000      METHY-02   0.00000000000000    
        UREA      0.756887332238913E-06  CALCI-01   0.00000000000000      LANTH-01  0.170515613296235E-05
        AMMON-01  0.100681043194719E-02  GLYCE-01  0.503405215973593E-03  NITROGEN   0.00000000000000    
        WATER      0.00000000000000    

 STREAM AMMONIA 
        SUBSTREAM MIXED     F =  0.105909591976778E-02  T =   423.903278110533      P =   50000.0000000000    
                            H =  -50329103.7068706      V =   1.00000000000000      L =   0.00000000000000    
                            ENTROPY =  -4594.90174623078      DENSITY =  0.256032619877627      MW =   18.0217891190483    
        GLYCEROL  0.186478007992980E-05  TRIOL-01   0.00000000000000      TRILI-01   0.00000000000000    
        METHA-01  0.505909307689676E-04  METHY-01   0.00000000000000      METHY-02   0.00000000000000    
        UREA      0.348441234556306E-06  CALCI-01   0.00000000000000      LANTH-01   0.00000000000000    
        AMMON-01  0.100495209021247E-02  GLYCE-01  0.133967747184951E-05  NITROGEN   0.00000000000000    
        WATER      0.00000000000000    

 STREAM S17     
        SUBSTREAM MIXED     F =  0.592099951217037E-03  T =   423.903278110533      P =   50000.0000000000    
                            H =  -757987326.868080      V =   0.00000000000000      L =   1.00000000000000    
                            ENTROPY =  -19124.5918501193      DENSITY =   1076.88844840150      MW =   113.798079857488    
        GLYCEROL  0.869714345036453E-04  TRIOL-01   0.00000000000000      TRILI-01   0.00000000000000    
        METHA-01  0.796190379254951E-06  METHY-01   0.00000000000000      METHY-02   0.00000000000000    
        UREA      0.408446097682607E-06  CALCI-01   0.00000000000000      LANTH-01   0.00000000000000    
        AMMON-01  0.185834173471152E-05  GLYCE-01  0.502065538501743E-03  NITROGEN   0.00000000000000    
        WATER      0.00000000000000    

 Report Writer entered                                                            Time =    367.47

      BEGIN HEATX TQ-CURVE REPORT FOR BLOCK B16     

      BEGIN COLD-TQCURVE INLET   

      BEGIN HOT-TQCURVE  INLET   
      END HEATX TQ-CURVE REPORT FOR BLOCK B16     

      BEGIN HEATX TQ-CURVE REPORT FOR BLOCK HEATX1  

      BEGIN COLD-TQCURVE INLET   

      BEGIN HOT-TQCURVE  INLET   
      END HEATX TQ-CURVE REPORT FOR BLOCK HEATX1  

      BEGIN HEATX TQ-CURVE REPORT FOR BLOCK HEATX2  

      BEGIN COLD-TQCURVE INLET   

      BEGIN HOT-TQCURVE  INLET   
      END HEATX TQ-CURVE REPORT FOR BLOCK HEATX2  
      STREAM CATOUT WILL BE FLASHED FOR PROPERTY CALCULATIONS.
      KODE = 1   NO. TEMP ITER =    1     TEMP =  338.151    
      KPHASE =    3 KODE =    1 T =  338.151     P =  100000.     Q =  0.00000    
      STREAM LAOOUT WILL BE FLASHED FOR PROPERTY CALCULATIONS.
      KODE = 1   NO. TEMP ITER =    1     TEMP =  424.942    
      KPHASE =    3 KODE =    1 T =  424.942     P =  100000.     Q =  0.00000    
      STREAM S20 WILL BE FLASHED FOR PROPERTY CALCULATIONS.
      KODE = 2  NTRIAL =   6  T = 333.1500  P =  100000.      V = 6.805815E-08  Q =-1.510801E-11

  **  ERROR WHILE GENERATING REPORT FOR STREAM: "S20"          (PEQGET.1)       
      FLASH RESULTS ARE WITHIN TOLERANCE, BUT MAY BE UNSATISFACTORY BECAUSE     
      EXTRAPOLATED EOS VAPOR VOLUME ROOT WAS USED FOR PROPERTY CALCULATIONS     
      (T= 333.1500 K, P= 1.0000D+05 Pa). CALCULATED PROPERTIES MAY BE           
      UNRELIABLE DUE TO FLASH PROBLEM.                                          

      BEGIN CALCULATIONS FOR PROP-TABLE BINRY-2                                   TIME =    367.89

 Results generated                                                                Time =    368.10

 Report Writer entered                                                            Time =    370.64

      BEGIN HEATX TQ-CURVE REPORT FOR BLOCK B16     

      BEGIN COLD-TQCURVE INLET   

      BEGIN HOT-TQCURVE  INLET   
      END HEATX TQ-CURVE REPORT FOR BLOCK B16     

      BEGIN HEATX TQ-CURVE REPORT FOR BLOCK HEATX1  

      BEGIN COLD-TQCURVE INLET   

      BEGIN HOT-TQCURVE  INLET   
      END HEATX TQ-CURVE REPORT FOR BLOCK HEATX1  

      BEGIN HEATX TQ-CURVE REPORT FOR BLOCK HEATX2  

      BEGIN COLD-TQCURVE INLET   

      BEGIN HOT-TQCURVE  INLET   
      END HEATX TQ-CURVE REPORT FOR BLOCK HEATX2  
      STREAM CATOUT WILL BE FLASHED FOR PROPERTY CALCULATIONS.
      KODE = 1   NO. TEMP ITER =    1     TEMP =  338.151    
      KPHASE =    3 KODE =    1 T =  338.151     P =  100000.     Q =  0.00000    
      STREAM LAOOUT WILL BE FLASHED FOR PROPERTY CALCULATIONS.
      KODE = 1   NO. TEMP ITER =    1     TEMP =  424.942    
      KPHASE =    3 KODE =    1 T =  424.942     P =  100000.     Q =  0.00000    
      STREAM S20 WILL BE FLASHED FOR PROPERTY CALCULATIONS.
      KODE = 2  NTRIAL =   6  T = 333.1500  P =  100000.      V = 6.805815E-08  Q =-1.510801E-11

  **  ERROR WHILE GENERATING REPORT FOR STREAM: "S20"          (PEQGET.1)       
      FLASH RESULTS ARE WITHIN TOLERANCE, BUT MAY BE UNSATISFACTORY BECAUSE     
      EXTRAPOLATED EOS VAPOR VOLUME ROOT WAS USED FOR PROPERTY CALCULATIONS     
      (T= 333.1500 K, P= 1.0000D+05 Pa). CALCULATED PROPERTIES MAY BE           
      UNRELIABLE DUE TO FLASH PROBLEM.                                          

      BEGIN CALCULATIONS FOR PROP-TABLE BINRY-2                                   TIME =    371.06

 Results generated                                                                Time =    371.23

RUN SAVED



 *** SUMMARY OF ERRORS ***

                  PHYSICAL
                  PROPERTY  SYSTEM  SIMULATION
 TERMINAL ERRORS      0        0         0
   SEVERE ERRORS      0        0         0
          ERRORS      0        0         6
        WARNINGS     86        0        25

 THE FOLLOWING BINARY-INTERACTION PARAMETERS ARE ESTIMATED FOR MODEL ESRKU:


 BINARY GLYCEROL - TRIOL-01

      INTERACTION PARAMETERS NOT PREDICTED BECAUSE UNIFAC GENERATES VERY LOW OR HIGH PRESSURE DATA

 BINARY GLYCEROL - TRILI-01

      INTERACTION PARAMETERS NOT PREDICTED BECAUSE UNIFAC GROUP PARAMETERS ARE MISSING

 BINARY GLYCEROL - METHA-01
      RKUKA0 =   -0.121950    
      RKUKA2 =     23.8381    
      RKULA0 =    0.341113E-01
      RKULA2 =    -10.0315    

      FOR     298.15 (K) <= T <=    318.15 (K)


 BINARY GLYCEROL - METHY-01

      INTERACTION PARAMETERS NOT PREDICTED BECAUSE UNIFAC GENERATES VERY LOW OR HIGH PRESSURE DATA

 BINARY GLYCEROL - METHY-02

      INTERACTION PARAMETERS NOT PREDICTED BECAUSE UNIFAC GENERATES VERY LOW OR HIGH PRESSURE DATA

 BINARY GLYCEROL - UREA    

      INTERACTION PARAMETERS NOT PREDICTED BECAUSE UNIFAC GROUP PARAMETERS ARE MISSING

 BINARY GLYCEROL - CALCI-01

      INTERACTION PARAMETERS NOT PREDICTED BECAUSE UNIFAC GROUP PARAMETERS ARE MISSING

 BINARY GLYCEROL - LANTH-01

      INTERACTION PARAMETERS CANNOT BE PREDICTED USING UNIFAC

 BINARY GLYCEROL - GLYCE-01

      INTERACTION PARAMETERS NOT PREDICTED BECAUSE UNIFAC GROUP PARAMETERS ARE MISSING

 BINARY GLYCEROL - WATER   
      RKUKA0 =    0.603974E-02
      RKUKA2 =    -15.3785    
      RKULA0 =    0.789942E-02
      RKULA2 =    -2.78712    

      FOR     298.15 (K) <= T <=    318.15 (K)


 BINARY TRIOL-01 - TRILI-01

      INTERACTION PARAMETERS NOT PREDICTED BECAUSE UNIFAC GROUP PARAMETERS ARE MISSING

 BINARY TRIOL-01 - METHA-01

      INTERACTION PARAMETERS NOT PREDICTED BECAUSE UNIFAC GENERATES VERY LOW OR HIGH PRESSURE DATA

 BINARY TRIOL-01 - METHY-01

      INTERACTION PARAMETERS NOT PREDICTED BECAUSE UNIFAC GENERATES VERY LOW OR HIGH PRESSURE DATA

 BINARY TRIOL-01 - METHY-02

      INTERACTION PARAMETERS NOT PREDICTED BECAUSE UNIFAC GENERATES VERY LOW OR HIGH PRESSURE DATA

 BINARY TRIOL-01 - UREA    

      INTERACTION PARAMETERS NOT PREDICTED BECAUSE UNIFAC GROUP PARAMETERS ARE MISSING

 BINARY TRIOL-01 - CALCI-01

      INTERACTION PARAMETERS NOT PREDICTED BECAUSE UNIFAC GROUP PARAMETERS ARE MISSING

 BINARY TRIOL-01 - LANTH-01

      INTERACTION PARAMETERS NOT PREDICTED BECAUSE UNIFAC GROUP PARAMETERS ARE MISSING

 BINARY TRIOL-01 - GLYCE-01

      INTERACTION PARAMETERS NOT PREDICTED BECAUSE UNIFAC GROUP PARAMETERS ARE MISSING

 BINARY TRIOL-01 - WATER   

      INTERACTION PARAMETERS NOT PREDICTED BECAUSE UNIFAC GENERATES VERY LOW OR HIGH PRESSURE DATA

 BINARY TRILI-01 - METHA-01

      INTERACTION PARAMETERS NOT PREDICTED BECAUSE UNIFAC GROUP PARAMETERS ARE MISSING

 BINARY TRILI-01 - METHY-01

      INTERACTION PARAMETERS NOT PREDICTED BECAUSE UNIFAC GROUP PARAMETERS ARE MISSING

 BINARY TRILI-01 - METHY-02

      INTERACTION PARAMETERS NOT PREDICTED BECAUSE UNIFAC GROUP PARAMETERS ARE MISSING

 BINARY TRILI-01 - UREA    

      INTERACTION PARAMETERS NOT PREDICTED BECAUSE UNIFAC GROUP PARAMETERS ARE MISSING

 BINARY TRILI-01 - CALCI-01

      INTERACTION PARAMETERS NOT PREDICTED BECAUSE UNIFAC GROUP PARAMETERS ARE MISSING

 BINARY TRILI-01 - LANTH-01

      INTERACTION PARAMETERS NOT PREDICTED BECAUSE UNIFAC GROUP PARAMETERS ARE MISSING

 BINARY TRILI-01 - GLYCE-01

      INTERACTION PARAMETERS NOT PREDICTED BECAUSE UNIFAC GROUP PARAMETERS ARE MISSING

 BINARY TRILI-01 - WATER   

      INTERACTION PARAMETERS NOT PREDICTED BECAUSE UNIFAC GROUP PARAMETERS ARE MISSING

 BINARY METHA-01 - METHY-01
      RKUKA0 =   -0.597541E-01
      RKUKA2 =     2.71431    
      RKULA0 =   -0.139340E-01
      RKULA2 =    -11.3968    

      FOR     298.15 (K) <= T <=    318.15 (K)


 BINARY METHA-01 - METHY-02
      RKUKA0 =    0.153105E-01
      RKUKA2 =    -25.2241    
      RKULA0 =   -0.182201E-02
      RKULA2 =    -16.6520    

      FOR     298.15 (K) <= T <=    318.15 (K)


 BINARY METHA-01 - UREA    

      INTERACTION PARAMETERS NOT PREDICTED BECAUSE UNIFAC GROUP PARAMETERS ARE MISSING

 BINARY METHA-01 - CALCI-01

      INTERACTION PARAMETERS NOT PREDICTED BECAUSE UNIFAC GROUP PARAMETERS ARE MISSING

 BINARY METHA-01 - LANTH-01

      INTERACTION PARAMETERS CANNOT BE PREDICTED USING UNIFAC

 BINARY METHA-01 - GLYCE-01

      INTERACTION PARAMETERS NOT PREDICTED BECAUSE UNIFAC GROUP PARAMETERS ARE MISSING

 BINARY METHA-01 - WATER   
      RKUKA0 =   -0.553952E-01
      RKUKA2 =    -9.48761    
      RKULA0 =    0.171613E-01
      RKULA2 =    -3.75214    

      FOR     298.15 (K) <= T <=    318.15 (K)


 BINARY METHY-01 - METHY-02

      INTERACTION PARAMETERS NOT PREDICTED BECAUSE UNIFAC GENERATES VERY LOW OR HIGH PRESSURE DATA

 BINARY METHY-01 - UREA    

      INTERACTION PARAMETERS NOT PREDICTED BECAUSE UNIFAC GROUP PARAMETERS ARE MISSING

 BINARY METHY-01 - CALCI-01

      INTERACTION PARAMETERS NOT PREDICTED BECAUSE UNIFAC GROUP PARAMETERS ARE MISSING

 BINARY METHY-01 - LANTH-01

      INTERACTION PARAMETERS NOT PREDICTED BECAUSE UNIFAC GROUP PARAMETERS ARE MISSING

 BINARY METHY-01 - GLYCE-01

      INTERACTION PARAMETERS NOT PREDICTED BECAUSE UNIFAC GROUP PARAMETERS ARE MISSING

 BINARY METHY-01 - WATER   
      RKUKA0 =    0.111729    
      RKUKA2 =    -102.712    
      RKULA0 =    0.254424    
      RKULA2 =    -28.7397    

      FOR     298.15 (K) <= T <=    318.15 (K)


 BINARY METHY-02 - UREA    

      INTERACTION PARAMETERS NOT PREDICTED BECAUSE UNIFAC GROUP PARAMETERS ARE MISSING

 BINARY METHY-02 - CALCI-01

      INTERACTION PARAMETERS NOT PREDICTED BECAUSE UNIFAC GROUP PARAMETERS ARE MISSING

 BINARY METHY-02 - LANTH-01

      INTERACTION PARAMETERS NOT PREDICTED BECAUSE UNIFAC GROUP PARAMETERS ARE MISSING

 BINARY METHY-02 - GLYCE-01

      INTERACTION PARAMETERS NOT PREDICTED BECAUSE UNIFAC GROUP PARAMETERS ARE MISSING

 BINARY METHY-02 - WATER   
      RKUKA0 =   -0.292058    
      RKUKA2 =     12.7089    
      RKULA0 =    0.632576    
      RKULA2 =    -152.434    

      FOR     298.15 (K) <= T <=    318.15 (K)


 BINARY UREA     - CALCI-01

      INTERACTION PARAMETERS NOT PREDICTED BECAUSE UNIFAC GROUP PARAMETERS ARE MISSING

 BINARY UREA     - LANTH-01

      INTERACTION PARAMETERS CANNOT BE PREDICTED USING UNIFAC

 BINARY UREA     - GLYCE-01

      INTERACTION PARAMETERS NOT PREDICTED BECAUSE UNIFAC GROUP PARAMETERS ARE MISSING

 BINARY UREA     - WATER   

      INTERACTION PARAMETERS NOT PREDICTED BECAUSE UNIFAC GROUP PARAMETERS ARE MISSING

 BINARY CALCI-01 - LANTH-01

      INTERACTION PARAMETERS CANNOT BE PREDICTED USING UNIFAC

 BINARY CALCI-01 - GLYCE-01

      INTERACTION PARAMETERS NOT PREDICTED BECAUSE UNIFAC GROUP PARAMETERS ARE MISSING

 BINARY CALCI-01 - WATER   

      INTERACTION PARAMETERS NOT PREDICTED BECAUSE UNIFAC GROUP PARAMETERS ARE MISSING

 BINARY LANTH-01 - GLYCE-01

      INTERACTION PARAMETERS CANNOT BE PREDICTED USING UNIFAC

 BINARY LANTH-01 - WATER   

      INTERACTION PARAMETERS CANNOT BE PREDICTED USING UNIFAC

 BINARY GLYCE-01 - WATER   

      INTERACTION PARAMETERS NOT PREDICTED BECAUSE UNIFAC GROUP PARAMETERS ARE MISSING

 *** CALCULATION TRACE ***


<set objective = None>
      STREAM CATOUT WILL BE FLASHED FOR PROPERTY CALCULATIONS.
      KODE = 1   NO. TEMP ITER =    1     TEMP =  338.151    
      KPHASE =    3 KODE =    1 T =  338.151     P =  100000.     Q =  0.00000    
      STREAM LAOOUT WILL BE FLASHED FOR PROPERTY CALCULATIONS.
      KODE = 1   NO. TEMP ITER =    1     TEMP =  424.942    
      KPHASE =    3 KODE =    1 T =  424.942     P =  100000.     Q =  0.00000    
      STREAM S20 WILL BE FLASHED FOR PROPERTY CALCULATIONS.
      KODE = 2  NTRIAL =   6  T = 333.1500  P =  100000.      V = 6.805815E-08  Q =-1.510801E-11

  **  ERROR WHILE GENERATING REPORT FOR STREAM: "S20"          (PEQGET.1)       
      FLASH RESULTS ARE WITHIN TOLERANCE, BUT MAY BE UNSATISFACTORY BECAUSE     
      EXTRAPOLATED EOS VAPOR VOLUME ROOT WAS USED FOR PROPERTY CALCULATIONS     
      (T= 333.1500 K, P= 1.0000D+05 Pa). CALCULATED PROPERTIES MAY BE           
      UNRELIABLE DUE TO FLASH PROBLEM.                                          

 Report Writer entered                                                            Time =    205.18

      BEGIN HEATX TQ-CURVE REPORT FOR BLOCK B16     

      BEGIN COLD-TQCURVE INLET   

      BEGIN HOT-TQCURVE  INLET   
      END HEATX TQ-CURVE REPORT FOR BLOCK B16     

      BEGIN HEATX TQ-CURVE REPORT FOR BLOCK HEATX1  

      BEGIN COLD-TQCURVE INLET   

      BEGIN HOT-TQCURVE  INLET   
      END HEATX TQ-CURVE REPORT FOR BLOCK HEATX1  

      BEGIN HEATX TQ-CURVE REPORT FOR BLOCK HEATX2  

      BEGIN COLD-TQCURVE INLET   

      BEGIN HOT-TQCURVE  INLET   
      END HEATX TQ-CURVE REPORT FOR BLOCK HEATX2  
      STREAM CATOUT WILL BE FLASHED FOR PROPERTY CALCULATIONS.
      KODE = 1   NO. TEMP ITER =    1     TEMP =  338.151    
      KPHASE =    3 KODE =    1 T =  338.151     P =  100000.     Q =  0.00000    
      STREAM LAOOUT WILL BE FLASHED FOR PROPERTY CALCULATIONS.
      KODE = 1   NO. TEMP ITER =    1     TEMP =  424.942    
      KPHASE =    3 KODE =    1 T =  424.942     P =  100000.     Q =  0.00000    
      STREAM S20 WILL BE FLASHED FOR PROPERTY CALCULATIONS.
      KODE = 2  NTRIAL =   6  T = 333.1500  P =  100000.      V = 6.805815E-08  Q =-1.510801E-11

  **  ERROR WHILE GENERATING REPORT FOR STREAM: "S20"          (PEQGET.1)       
      FLASH RESULTS ARE WITHIN TOLERANCE, BUT MAY BE UNSATISFACTORY BECAUSE     
      EXTRAPOLATED EOS VAPOR VOLUME ROOT WAS USED FOR PROPERTY CALCULATIONS     
      (T= 333.1500 K, P= 1.0000D+05 Pa). CALCULATED PROPERTIES MAY BE           
      UNRELIABLE DUE TO FLASH PROBLEM.                                          

      BEGIN CALCULATIONS FOR PROP-TABLE BINRY-2                                   TIME =    205.84

 Results generated                                                                Time =    206.59

 Report Writer entered                                                            Time =    211.12

      BEGIN HEATX TQ-CURVE REPORT FOR BLOCK B16     

      BEGIN COLD-TQCURVE INLET   

      BEGIN HOT-TQCURVE  INLET   
      END HEATX TQ-CURVE REPORT FOR BLOCK B16     

      BEGIN HEATX TQ-CURVE REPORT FOR BLOCK HEATX1  

      BEGIN COLD-TQCURVE INLET   

      BEGIN HOT-TQCURVE  INLET   
      END HEATX TQ-CURVE REPORT FOR BLOCK HEATX1  

      BEGIN HEATX TQ-CURVE REPORT FOR BLOCK HEATX2  

      BEGIN COLD-TQCURVE INLET   

      BEGIN HOT-TQCURVE  INLET   
      END HEATX TQ-CURVE REPORT FOR BLOCK HEATX2  
      STREAM CATOUT WILL BE FLASHED FOR PROPERTY CALCULATIONS.
      KODE = 1   NO. TEMP ITER =    1     TEMP =  338.151    
      KPHASE =    3 KODE =    1 T =  338.151     P =  100000.     Q =  0.00000    
      STREAM LAOOUT WILL BE FLASHED FOR PROPERTY CALCULATIONS.
      KODE = 1   NO. TEMP ITER =    1     TEMP =  424.942    
      KPHASE =    3 KODE =    1 T =  424.942     P =  100000.     Q =  0.00000    
      STREAM S20 WILL BE FLASHED FOR PROPERTY CALCULATIONS.
      KODE = 2  NTRIAL =   6  T = 333.1500  P =  100000.      V = 6.805815E-08  Q =-1.510801E-11

  **  ERROR WHILE GENERATING REPORT FOR STREAM: "S20"          (PEQGET.1)       
      FLASH RESULTS ARE WITHIN TOLERANCE, BUT MAY BE UNSATISFACTORY BECAUSE     
      EXTRAPOLATED EOS VAPOR VOLUME ROOT WAS USED FOR PROPERTY CALCULATIONS     
      (T= 333.1500 K, P= 1.0000D+05 Pa). CALCULATED PROPERTIES MAY BE           
      UNRELIABLE DUE TO FLASH PROBLEM.                                          

      BEGIN CALCULATIONS FOR PROP-TABLE BINRY-2                                   TIME =    211.64

 Results generated                                                                Time =    211.92

RUN SAVED



 *** SUMMARY OF ERRORS ***

                  PHYSICAL
                  PROPERTY  SYSTEM  SIMULATION
 TERMINAL ERRORS      0        0         0
   SEVERE ERRORS      0        0         0
          ERRORS      0        0         3
        WARNINGS     83        0         0
