
 + + + + + + + + + + + + + + + + + + + + + + + + + + + + + + + + + + + + + + + +
 + + + + + + + + + + + + + + + + + + + + + + + + + + + + + + + + + + + + + + + +
 + +                                                                         + +
 + +                      ASPEN PLUS CALCULATION HISTORY                     + +
 + +                                                                         + +
 + + + + + + + + + + + + + + + + + + + + + + + + + + + + + + + + + + + + + + + +
 + + + + + + + + + + + + + + + + + + + + + + + + + + + + + + + + + + + + + + + +

 ASPEN PLUS IS A TRADEMARK OF           HOTLINE:
 ASPEN TECHNOLOGY, INC.                 U.S.A. 888/996-7100
 781/221-6400                           EUROPE (44) 1189-226555

 PLATFORM: WINDOWS                                       MARCH 20, 2020      
 VERSION: 36.0   Build 249                               FRIDAY      
 INSTALLATION:                                           2:28:56 P.M.        

 THIS COPY OF ASPEN PLUS LICENSED TO RENSSELAER POLYTECHNIC I        


      ASPEN PLUS (R) IS A PROPRIETARY PRODUCT OF ASPEN TECHNOLOGY, INC.
      (ASPENTECH), AND MAY BE USED ONLY UNDER AGREEMENT WITH ASPENTECH.
      RESTRICTED RIGHTS LEGEND:  USE, REPRODUCTION, OR DISCLOSURE BY THE
      U.S. GOVERNMENT IS SUBJECT TO RESTRICTIONS SET FORTH IN 
      (i) FAR 52.227-14, Alt. III, (ii) FAR 52.227-19, (iii) DFARS 
      252.227-7013(c)(1)(ii), or (iv) THE ACCOMPANYING LICENSE AGREEMENT,
      AS APPLICABLE. FOR PURPOSES OF THE FAR, THIS SOFTWARE SHALL BE DEEMED
      TO BE "UNPUBLISHED" AND LICENSED WITH DISCLOSURE PROHIBITIONS.
      CONTRACTOR/SUBCONTRACTOR: ASPEN TECHNOLOGY, INC. 20 CROSBY DRIVE,
      BEDFORD, MA 01730.
 *** INPUT SUMMARY ***

 >>CURRENT RUN

   ORIGINAL RUN                           MARCH 20, 2020      
   2:28:56 P.M.                           FRIDAY      
   INPUT FILE: _5614rlo.inm
   RUN ID : _5614rlo
          1    ;
          2    ;Input file created by Aspen Plus Rel. 36.0 at 14:28:55 Fri Mar 20, 2020
          3    ;Directory C:\Users\benjam2\Dropbox\spring 2020\Capstone\biocap2020\Aspen\full recycle  Runid full recycle
          4    ;
          5
          6
          7    DYNAMICS
          8        DYNAMICS RESULTS=ON
          9
         10    IN-UNITS MET PRESSURE=bar TEMPERATURE=C DELTA-T=C PDROP=bar  &
         11            INVERSE-PRES='1/bar' SHORT-LENGTH=mm
         12
         13    DEF-STREAMS CONVEN ALL
         14
         15    MODEL-OPTION
         16
         17    DATABANKS 'APV100 PURE36' / 'APV100 AQUEOUS' / 'APV100 SOLIDS' &
         18             / 'APV100 INORGANIC' / 'APESV100 AP-EOS' /  &
         19            'NISTV100 NIST-TRC' / NOASPENPCD
         20
         21    PROP-SOURCES 'APV100 PURE36' / 'APV100 AQUEOUS' /  &
         22            'APV100 SOLIDS' / 'APV100 INORGANIC' / 'APESV100 AP-EOS' &
         23             / 'NISTV100 NIST-TRC'
         24
         25    COMPONENTS
         26        GLYCEROL C3H8O3 /
         27        TRIOL-01 C57H104O6 /
         28        TRILI-01 C57H98O6 /
         29        METHA-01 CH4O /
         30        METHY-01 C19H36O2 /
         31        METHY-02 C19H34O2 /
         32        UREA CH4N2O /
         33        CALCI-01 CAO /
         34        LANTH-01 LA2O3 /
         35        AMMON-01 H3N /
         36        GLYCE-01 C4H6O4-N1 /
         37        NITROGEN N2 /
         38        WATER H2O
         39
         40    CISOLID-COMPS CALCI-01 LANTH-01
         41
         42    SOLVE
         43        RUN-MODE MODE=SIM
         44
         45    FLOWSHEET
         46        HIERARCHY B2
         47        CONNECT $C-1 IN=S16 OUT="B2.S4"
         48        CONNECT $C-3 IN=CAOIN OUT="B2.CATIN"
         49        CONNECT $C-2 IN="B2.S5" OUT=S5
         50        BLOCK B4 IN=S6 OUT=S8 GLYCEROL
         51        BLOCK B3 IN=S5 OUT=S6 CATOUT
         52        BLOCK B1 IN=OILS METHANOL OUT=S4
         53        BLOCK B6 IN=S2 OUT=METHOUT BIO
         54        BLOCK B9 IN=GLYCEROL OUT=METHOUT2 S11
         55        BLOCK B8 IN=S10 OUT=S13
         56        BLOCK B12 IN=S13 OUT=S15 LAOOUT
         57        BLOCK B13 IN=S15 OUT=HOTAMMO S17
         58        BLOCK B14 IN=S21 OUT=S18 GCHOT
         59        BLOCK B15 IN=S17 OUT=S21
         60        BLOCK HEATX1 IN=WATERHOT S8 OUT=WATEROUT S2
         61        BLOCK B11 IN=LAOIN UREAIN S11 GLYCRE OUT=S9
         62        BLOCK HEATX2 IN=GCHOT S9 OUT=GCHOT2 S10
         63        BLOCK B7 IN=METHOUT2 OUT=S3 S7
         64        BLOCK B17 IN=S4 OUT=S1
         65        BLOCK B16 IN=S14 WATERCOO OUT=S20 WATERHOT
         66        BLOCK B19 IN=S22 OUT=S23
         67        BLOCK B10 IN=S1 OUT=S16
         68        BLOCK B18 IN=S23 METHOUT OUT=S14
         69        BLOCK B5 IN=S18 WATEROUT OUT=GLYCRE S12
         70        BLOCK B20 IN=HOTAMMO S12 OUT=COLDAMMO S19
         71        BLOCK B21 IN=GCHOT2 S19 OUT=GCPROD S24
         72        BLOCK B23 IN=BIO OUT=S25
         73        BLOCK B26 IN=S25 OUT=S26 S27
         74        BLOCK B22 IN=S3 S26 OUT=S22
         75
         76    PROPERTIES SR-POLAR
         77        PROPERTIES IDEAL / NRTL
         78
         79    ESTIMATE ALL
         80
         81    PROP-DATA PCES-1
         82        IN-UNITS MET PRESSURE=bar TEMPERATURE=C DELTA-T=C PDROP=bar  &
         83            INVERSE-PRES='1/bar' SHORT-LENGTH=mm
         84        PROP-LIST OMEGA / DHVLB / VB / RGYR / RKTZRA / VLSTD
         85        PVAL UREA .5992461800 / 20985.95586 / 48.82570000 /  &
         86            2.6000000E-10 / .2351731880 / 48.82570000
         87        PROP-LIST RKTZRA / VLSTD
         88        PVAL CALCI-01 .2918596200 / 298.9063450
         89        PVAL GLYCE-01 .2037543860 / 69.23640000
         90
         91    PROP-DATA DHVLWT-1
         92        IN-UNITS MET PRESSURE=bar TEMPERATURE=C DELTA-T=C PDROP=bar  &
         93            INVERSE-PRES='1/bar' SHORT-LENGTH=mm
         94        PROP-LIST DHVLWT
         95        PVAL CALCI-01 5.38817025E+5 3396.850000 .3800000000 0.0  &
         96            3396.850000
         97
         98    PROP-DATA KLDIP-1
         99        IN-UNITS MET PRESSURE=bar TEMPERATURE=C DELTA-T=C PDROP=bar  &
        100            INVERSE-PRES='1/bar' SHORT-LENGTH=mm
        101        PROP-LIST KLDIP
        102        PVAL UREA .0494897448 1.57543997E-3 -1.0085909E-5  &
        103            2.44404255E-8 -2.254923E-11 191.8500000 424.8000000
        104        PVAL CALCI-01 -.6218197112 7.78300188E-4 -2.8775749E-7  &
        105            4.5627261E-11 -2.727830E-15 3396.850000 5686.650000
        106
        107    PROP-DATA MULAND-1
        108        IN-UNITS MET PRESSURE=bar TEMPERATURE=C DELTA-T=C PDROP=bar  &
        109            INVERSE-PRES='1/bar' SHORT-LENGTH=mm
        110        PROP-LIST MULAND
        111        PVAL UREA 129.3349773 -7951.576030 -18.41338230 191.8500000  &
        112            424.8000000
        113        PVAL CALCI-01 81.01615608 -12127.32210 -10.25255770  &
        114            1126.850000 1706.850000
        115
        116    PROP-DATA PLXANT-1
        117        IN-UNITS MET PRESSURE=bar TEMPERATURE=C DELTA-T=C PDROP=bar  &
        118            INVERSE-PRES='1/bar' SHORT-LENGTH=mm
        119        PROP-LIST PLXANT
        120        PVAL UREA 77.19179774 -10639.35530 0.0 0.0 -8.846083610  &
        121            3.4142003E-18 6.000000000 191.8500000 431.8500000
        122
        123    PROP-DATA SIGDIP-1
        124        IN-UNITS MET PRESSURE=bar TEMPERATURE=C DELTA-T=C PDROP=bar  &
        125            INVERSE-PRES='1/bar' SHORT-LENGTH=mm
        126        PROP-LIST SIGDIP
        127        PVAL UREA 156.7709600 1.222222220 5.9537296E-10  &
        128            -6.635066E-10 2.6632382E-10 191.8500000 417.7500000
        129        PVAL GLYCE-01 156.3532160 1.222222220 5.9089352E-10  &
        130            -6.640628E-10 2.6313812E-10 323.7990000 543.1900000
        131        PVAL CALCI-01 139.2135830 1.222222220 -2.171954E-10  &
        132            2.3955375E-10 -9.673330E-11 3396.850000 5626.450000
        133
        134    PROP-DATA HOCETA-1
        135        IN-UNITS MET PRESSURE=bar TEMPERATURE=C DELTA-T=C PDROP=bar  &
        136            INVERSE-PRES='1/bar' SHORT-LENGTH=mm
        137        PROP-LIST HOCETA
        138        BPVAL METHA-01 METHA-01 1.630000000
        139        BPVAL METHA-01 AMMON-01 .2000000000
        140        BPVAL AMMON-01 METHA-01 .2000000000
        141
        142    PROP-DATA NRTL-1
        143        IN-UNITS MET PRESSURE=bar TEMPERATURE=C DELTA-T=C PDROP=bar  &
        144            INVERSE-PRES='1/bar' SHORT-LENGTH=mm
        145        PROP-LIST NRTL
        146        BPVAL GLYCEROL METHA-01 0.0 -218.5217000 .3000000000 0.0  &
        147            0.0 0.0 25.00000000 62.50000000
        148        BPVAL METHA-01 GLYCEROL 0.0 547.8301000 .3000000000 0.0  &
        149            0.0 0.0 25.00000000 62.50000000
        150
        151    STREAM CAOIN
        152        SUBSTREAM MIXED TEMP=25. PRES=1. MOLE-FLOW=66. <mol/hr>
        153        MOLE-FRAC CALCI-01 1.
        154
        155    STREAM LAOIN
        156        SUBSTREAM MIXED TEMP=25. PRES=1. MASS-FLOW=2.
        157        MOLE-FRAC LANTH-01 1.
        158
        159    STREAM METHANOL
        160        SUBSTREAM MIXED TEMP=25. PRES=1. MOLE-FLOW=19800. <mol/hr>
        161        MOLE-FRAC METHA-01 1.
        162
        163    STREAM OILS
        164        SUBSTREAM MIXED TEMP=25. PRES=1. MOLE-FLOW=2200. <mol/hr>
        165        MOLE-FRAC TRIOL-01 0.6 / TRILI-01 0.4
        166
        167    STREAM UREAIN
        168        SUBSTREAM MIXED TEMP=25. PRES=1. MASS-FLOW=150.
        169        MOLE-FRAC UREA 1.
        170
        171    STREAM WATERCOO
        172        SUBSTREAM MIXED TEMP=25. PRES=1. MOLE-FLOW=225.
        173        MOLE-FRAC WATER 1.
        174
        175    BLOCK B1 MIXER
        176        PARAM PRES=1. NPHASE=1 PHASE=L TOL=0.01 T-EST=25.
        177        PROPERTIES IDEAL FREE-WATER=STEAM-TA SOLU-WATER=3  &
        178            TRUE-COMPS=YES
        179        BLOCK-OPTION FREE-WATER=NO
        180
        181    BLOCK B11 MIXER
        182        PARAM PRES=1.
        183
        184    BLOCK B17 MIXER
        185        PARAM PRES=1. NPHASE=1 PHASE=L
        186        PROPERTIES IDEAL FREE-WATER=STEAM-TA SOLU-WATER=3  &
        187            TRUE-COMPS=YES
        188        BLOCK-OPTION FREE-WATER=NO
        189
        190    BLOCK B18 MIXER
        191        PARAM
        192
        193    BLOCK B22 MIXER
        194        PARAM
        195
        196    BLOCK B7 FSPLIT
        197        FRAC S3 0.99
        198
        199    BLOCK B10 HEATER
        200        PARAM TEMP=65. PRES=1. NPHASE=1 PHASE=L DPPARMOPT=NO
        201        BLOCK-OPTION FREE-WATER=NO
        202
        203    BLOCK B23 HEATER
        204        PARAM TEMP=115. PRES=1. DPPARMOPT=NO
        205
        206    BLOCK B9 FLASH2
        207        PARAM TEMP=100. PRES=0.2 MAXIT=30
        208        PROPERTIES SR-POLAR FREE-WATER=STEAM-TA SOLU-WATER=3  &
        209            TRUE-COMPS=YES
        210
        211    BLOCK B13 FLASH2
        212        PARAM PRES=0.5 DUTY=0.
        213
        214    BLOCK B26 FLASH2
        215        PARAM PRES=0.2 DUTY=0.
        216
        217    BLOCK B4 DECANTER
        218        PARAM TEMP=65. PRES=1. LL-METH=EQ-SOLVE L2-COMPS=METHA-01  &
        219            L2-CUTOFF=0.5 MAXIT=30
        220
        221    BLOCK B5 HEATX
        222        PARAM T-HOT=140. CALC-TYPE=DESIGN U-OPTION=PHASE  &
        223            F-OPTION=CONSTANT CALC-METHOD=SHORTCUT
        224        FEEDS HOT=S18 COLD=WATEROUT
        225        OUTLETS-HOT GLYCRE
        226        OUTLETS-COLD S12
        227        HOT-SIDE DP-OPTION=CONSTANT DPPARMOPT=NO
        228        COLD-SIDE DP-OPTION=CONSTANT DPPARMOPT=NO
        229        TQ-PARAM CURVE=YES
        230
        231    BLOCK B16 HEATX
        232        PARAM T-HOT=63. CALC-TYPE=DESIGN TYPE=COUNTERCURRE  &
        233            PRES-HOT=1. U-OPTION=PHASE F-OPTION=CONSTANT  &
        234            CALC-METHOD=SHORTCUT
        235        FEEDS HOT=S14 COLD=WATERCOO
        236        OUTLETS-HOT S20
        237        OUTLETS-COLD WATERHOT
        238        PROPERTIES NRTL FREE-WATER=STEAM-TA SOLU-WATER=3  &
        239            TRUE-COMPS=YES / STEAM-TA FREE-WATER=STEAM-TA  &
        240            SOLU-WATER=3 TRUE-COMPS=YES
        241        HOT-SIDE DP-OPTION=CONSTANT DPPARMOPT=NO
        242        COLD-SIDE DP-OPTION=CONSTANT DPPARMOPT=NO
        243        TQ-PARAM CURVE=YES
        244
        245    BLOCK B20 HEATX
        246        PARAM T-HOT=90. CALC-TYPE=DESIGN U-OPTION=PHASE  &
        247            F-OPTION=CONSTANT CALC-METHOD=SHORTCUT
        248        FEEDS HOT=HOTAMMO COLD=S12
        249        OUTLETS-HOT COLDAMMO
        250        OUTLETS-COLD S19
        251        HOT-SIDE DP-OPTION=CONSTANT DPPARMOPT=NO
        252        COLD-SIDE DP-OPTION=CONSTANT DPPARMOPT=NO
        253        TQ-PARAM CURVE=YES
        254
        255    BLOCK B21 HEATX
        256        PARAM T-HOT=90. CALC-TYPE=DESIGN U-OPTION=PHASE  &
        257            F-OPTION=CONSTANT CALC-METHOD=SHORTCUT
        258        FEEDS HOT=GCHOT2 COLD=S19
        259        OUTLETS-HOT GCPROD
        260        OUTLETS-COLD S24
        261        HOT-SIDE DP-OPTION=CONSTANT DPPARMOPT=NO
        262        COLD-SIDE DP-OPTION=CONSTANT DPPARMOPT=NO
        263        TQ-PARAM CURVE=YES
        264
        265    BLOCK HEATX1 HEATX
        266        PARAM T-COLD=80. CALC-TYPE=DESIGN TYPE=COUNTERCURRE  &
        267            U-OPTION=PHASE F-OPTION=CONSTANT CALC-METHOD=SHORTCUT
        268        FEEDS HOT=WATERHOT COLD=S8
        269        OUTLETS-HOT WATEROUT
        270        OUTLETS-COLD S2
        271        PROPERTIES NRTL FREE-WATER=STEAM-TA SOLU-WATER=3  &
        272            TRUE-COMPS=YES / NRTL FREE-WATER=STEAM-TA SOLU-WATER=3  &
        273            TRUE-COMPS=YES
        274        HOT-SIDE DP-OPTION=CONSTANT DPPARMOPT=NO
        275        COLD-SIDE DP-OPTION=CONSTANT DPPARMOPT=NO
        276        TQ-PARAM CURVE=YES
        277
        278    BLOCK HEATX2 HEATX
        279        PARAM T-COLD=140. CALC-TYPE=DESIGN U-OPTION=PHASE  &
        280            F-OPTION=CONSTANT CALC-METHOD=SHORTCUT
        281        FEEDS HOT=GCHOT COLD=S9
        282        OUTLETS-HOT GCHOT2
        283        OUTLETS-COLD S10
        284        HOT-SIDE DP-OPTION=CONSTANT DPPARMOPT=NO
        285        COLD-SIDE DP-OPTION=CONSTANT DPPARMOPT=NO
        286        TQ-PARAM CURVE=YES
        287
        288    BLOCK B6 RADFRAC
        289        PARAM NSTAGE=3 ALGORITHM=NONIDEAL INIT-OPTION=STANDARD  &
        290            MAXOL=200 DAMPING=NONE
        291        COL-CONFIG CONDENSER=PARTIAL-V
        292        FEEDS S2 2 ON-STAGE
        293        PRODUCTS BIO 3 L / METHOUT 1 V
        294        P-SPEC 1 1. / 2 1.
        295        COL-SPECS MASS-D:F=0.17 MASS-RR=3.
        296        PROPERTIES IDEAL FREE-WATER=STEAM-TA SOLU-WATER=3  &
        297            TRUE-COMPS=YES
        298
        299    BLOCK B14 RADFRAC
        300        PARAM NSTAGE=16 ALGORITHM=STANDARD MAXOL=25 DAMPING=NONE
        301        COL-CONFIG CONDENSER=PARTIAL-V
        302        FEEDS S21 10
        303        PRODUCTS S18 1 V / GCHOT 16 L
        304        P-SPEC 1 1.
        305        COL-SPECS MASS-D:F=0.18 MOLE-RR=3.
        306
        307    BLOCK B8 RSTOIC
        308        PARAM TEMP=140. PRES=3. <kPa>
        309        STOIC 1 MIXED GLYCEROL -1. / UREA -1. / AMMON-01 2. /  &
        310            GLYCE-01 1.
        311        CONV 1 MIXED GLYCEROL 0.85
        312
        313    HIERARCHY B2
        314
        315
        316    DEF-STREAMS CONVEN ALL
        317
        318    SOLVE
        319        PARAM METHOD=SM PROCESS=BATCH
        320        RUN-MODE MODE=SIM
        321
        322    FLOWSHEET
        323        BLOCK B1 IN=S1 OUT=S5
        324        BLOCK B2 IN=S4 CATIN OUT=S1
        325
        326    PROPERTIES SR-POLAR FREE-WATER=STEAM-TA SOLU-WATER=3  &
        327            TRUE-COMPS=YES
        328        PROPERTIES IDEAL / NRTL
        329
        330    BLOCK B2 MIXER
        331        PARAM PRES=1. NPHASE=1 PHASE=L
        332        PROPERTIES SR-POLAR FREE-WATER=STEAM-TA SOLU-WATER=3  &
        333            TRUE-COMPS=YES
        334        BLOCK-OPTION FREE-WATER=NO
        335
        336    BLOCK B1 BATCHOP
        337        PARAM TYPE=T-SPEC PRES=1. TEMP=65. NPHASE=1 PHASE=L
        338        INIT-COND FEED-TIME=1.
        339        DISCHARGE DISCHARGE-T=1.
        340        REACTIONS RXN-IDS=R-1 R-2
        341        BLOCK-OPTION FREE-WATER=NO
        342
        343    EO-CONV-OPTI
        344
        345    BATCH-OPTS
        346        PARAM MAX-TIME=6. OUTPUT-INT=0.05
        347
        348    ENDHIERARCHY B2
        349
        350    BLOCK B15 PUMP
        351        PARAM DELP=0.5
        352
        353    BLOCK B19 COMPR
        354        PARAM TYPE=ISENTROPIC DELP=0.8 NPHASE=2 SB-MAXIT=30  &
        355            SB-TOL=0.0001
        356        BLOCK-OPTION FREE-WATER=NO
        357
        358    BLOCK B3 CFUGE
        359        PARAM TYPE=SOLIDS-SEP NPHASE=2 PRES=1. DELT=0.
        360        SOLIDS-SEP SOLID-SPLIT=1. FLUID-SPLIT=1.
        361        PROPERTIES NRTL FREE-WATER=STEAM-TA SOLU-WATER=3  &
        362            TRUE-COMPS=YES
        363
        364    BLOCK B12 CFUGE
        365        PARAM TYPE=SOLIDS-SEP NPHASE=2 PRES=1.
        366        SOLIDS-SEP SOLID-SPLIT=1. FLUID-SPLIT=1.
        367
        368    EO-CONV-OPTI
        369
        370    STREAM-REPOR MOLEFLOW
        371
        372    PROPERTY-REP PCES
        373
        374    REACTIONS R-1 LHHW
        375        REAC-DATA 1
        376        RATE-CON 1 PRE-EXP=0.07 ACT-ENERGY=16.6 <kJ/mol>
        377        STOIC 1 MIXED TRIOL-01 -1. / METHA-01 -3. / METHY-01 3. / &
        378            GLYCEROL 1.
        379        DFORCE-EXP-1 1 MIXED TRIOL-01 1. / MIXED METHA-01 0. /  &
        380            MIXED METHY-01 0. / MIXED GLYCEROL 0.
        381        DFORCE-EQ-1 REACNO=1 A=0.
        382        DFORCE-EQ-2 REACNO=1 A=-52.95
        383
        384    REACTIONS R-2 LHHW
        385        REAC-DATA 1
        386        RATE-CON 1 PRE-EXP=0.07 ACT-ENERGY=16.6 <kJ/mol>
        387        STOIC 1 MIXED TRILI-01 -1. / METHA-01 -3. / GLYCEROL 1. / &
        388            METHY-02 3.
        389        DFORCE-EXP-1 1 MIXED TRILI-01 1. / MIXED METHA-01 0. /  &
        390            MIXED GLYCEROL 0. / MIXED METHY-02 0.
        391        DFORCE-EQ-1 REACNO=1 A=0.
        392        DFORCE-EQ-2 REACNO=1 A=-52.95
        393
        394    PROP-TABLE BINRY-2 PROPS
        395        IN-UNITS MET PRESSURE=bar TEMPERATURE=C DELTA-T=C PDROP=bar  &
        396            INVERSE-PRES='1/bar' SHORT-LENGTH=mm
        397        ANALYSIS ANAL-TYPE=GIBBS UNITS='cal/mol'
        398        PROPERTIES SR-POLAR FREE-WATER=STEAM-TA SOLU-WATER=3  &
        399            TRUE-COMPS=YES
        400        MOLE-FLOW GLYCEROL 1 /  METHY-01  1
        401        STATE PRES=1.
        402        VARY TEMP
        403        RANGE LIST=40.
        404        VARY MOLEFRAC COMP=GLYCEROL
        405        RANGE VARVALUE=RANGE LOWER=0.0 UPPER=1.0 NPOINT=50
        406        PARAM NPHASE=3
        407    ;
        408    ;
        409    ;
        410    ;
        411    ;
Added container block B2
 *** INPUT TRANSLATOR MESSAGES ***

  *** THIS RUN USES THE PROPERTIES ENTERPRISE DATABASE ***
      SQLLOCALDB.APESV100 : (DATAVERSION - 36.0.0.1)                          
      SQLLOCALDB.APV100 : (DATAVERSION - 36.0.0.21)                           
      SQLLOCALDB.FACTV100 : (DATAVERSION - 36.0.0.1)                          
      SQLLOCALDB.NISTV100 : (DATAVERSION - 36.0.0.15)                         

      INFORMATION IN PHYSICAL PROPERTY SYSTEM                  (PCERTE.10)      
      STRUCTURE FOR COMPONENT TRILI-01 HAS NOT BEEN DEFINED.                    
      PCES CANNOT USE GROUP-CONTRIBUTION METHODS TO ESTIMATE MISSING PROPERTIES.
      USE THE STRUCTURES PARAGRAPH TO DEFINE STRUCTURES OF THIS COMPONENT.      

      INFORMATION IN PHYSICAL PROPERTY SYSTEM                  (PCERTE.10)      
      STRUCTURE FOR COMPONENT UREA HAS NOT BEEN DEFINED.                        
      PCES CANNOT USE GROUP-CONTRIBUTION METHODS TO ESTIMATE MISSING PROPERTIES.
      USE THE STRUCTURES PARAGRAPH TO DEFINE STRUCTURES OF THIS COMPONENT.      

      INFORMATION IN PHYSICAL PROPERTY SYSTEM                  (PCERTE.10)      
      STRUCTURE FOR COMPONENT CALCI-01 HAS NOT BEEN DEFINED.                    
      PCES CANNOT USE GROUP-CONTRIBUTION METHODS TO ESTIMATE MISSING PROPERTIES.
      USE THE STRUCTURES PARAGRAPH TO DEFINE STRUCTURES OF THIS COMPONENT.      

      INFORMATION IN PHYSICAL PROPERTY SYSTEM                  (PCERTE.10)      
      STRUCTURE FOR COMPONENT LANTH-01 HAS NOT BEEN DEFINED.                    
      PCES CANNOT USE GROUP-CONTRIBUTION METHODS TO ESTIMATE MISSING PROPERTIES.
      USE THE STRUCTURES PARAGRAPH TO DEFINE STRUCTURES OF THIS COMPONENT.      

      INFORMATION IN PHYSICAL PROPERTY SYSTEM                  (PCERTE.10)      
      STRUCTURE FOR COMPONENT GLYCE-01 HAS NOT BEEN DEFINED.                    
      PCES CANNOT USE GROUP-CONTRIBUTION METHODS TO ESTIMATE MISSING PROPERTIES.
      USE THE STRUCTURES PARAGRAPH TO DEFINE STRUCTURES OF THIS COMPONENT.      

      INFORMATION IN PHYSICAL PROPERTY SYSTEM                  (LOADMW.5)       
      MW AVAILABLE FOR COMPONENT TRILI-01 IS DIFFERENT FROM MW                  
      CALCULATED FROM FORMULA (ATOMNO/NOATOM).  CALCULATED VALUE IS USED.       
      AVAILABLE MW =   879.3840     CALCULATED MW =   879.4015                  

  *   WARNING IN PHYSICAL PROPERTY SYSTEM                      (LCLIMS.4)       
      PARAMETER DHVLWT/ELEMENT  1 (DATA SET 1)                                  
      UPPER BOUND VIOLATED FOR COMPONENT CALCI-01                               
      VALUE =  0.22559E+10, UPPER BOUND =  0.60000E+09                          

  *   WARNING IN PHYSICAL PROPERTY SYSTEM                      (LCLIMS.4)       
      PARAMETER DHVLWT/ELEMENT  5 (DATA SET 1)                                  
      UPPER BOUND VIOLATED FOR COMPONENT CALCI-01                               
      VALUE =   3670.0    , UPPER BOUND =   1500.0                              

  *   WARNING WHILE CHECKING INPUT SPECIFICATIONS              (PRPCHK.1)       
      INCONSISTENT PROPERTIES DETECTED FOR 10 STREAMS                           
      (SEE CONTROL PANEL OR HISTORY FILE FOR FULL LIST)                         
      SOURCE BLOCK        PROPERTIES STREAM   DESTINATION BLOCK   PROPERTIES    
      =================== ========== ======== =================== ==========    
      B3                  NRTL       S6       B4                  SR-POLAR      
      B2.B1               SR-POLAR   S5       B3                  NRTL          
      HEATX1              NRTL       S2       B6                  IDEAL         
      B16                 STEAM-TA   WATERHOT HEATX1              NRTL          
      B4                  SR-POLAR   S8       HEATX1              NRTL          
      B18                 SR-POLAR   S14      B16                 NRTL          
      B17                 IDEAL      S1       B10                 SR-POLAR      
      B6                  IDEAL      METHOUT  B18                 SR-POLAR      
      HEATX1              NRTL       WATEROUT B5                  SR-POLAR      
      B6                  IDEAL      BIO      B23                 SR-POLAR      
 
 

 PDF updated                                                                      TIME =      5.72


 THE FOLLOWING PURE COMPONENT PARAMETERS ARE ESTIMATED FOR MODEL ESRKU:


 COMPONENT GLYCEROL
      POLAR PARAMETER RKUPP0 =    -0.065662
                      RKUPP1 =     3.433459
                      RKUPP2 =    -6.929989

 COMPONENT TRIOL-01
      POLAR PARAMETER RKUPP0 =     4.099804
                      RKUPP1 =    -3.004889
                      RKUPP2 =     2.162829

 COMPONENT TRILI-01
      POLAR PARAMETER RKUPP0 =     4.075085
                      RKUPP1 =    -3.003402
                      RKUPP2 =     2.160700

 COMPONENT METHA-01
      POLAR PARAMETER RKUPP0 =     0.162227
                      RKUPP1 =    -1.430134
                      RKUPP2 =     0.008900

 COMPONENT METHY-01
      POLAR PARAMETER RKUPP0 =    -0.028342
                      RKUPP1 =   -11.709490
                      RKUPP2 =    14.975620

 COMPONENT METHY-02
      POLAR PARAMETER RKUPP0 =     0.959016
                      RKUPP1 =    -2.964248
                      RKUPP2 =     2.123185

 COMPONENT UREA    
      POLAR PARAMETER RKUPP0 =    -0.323045
                      RKUPP1 =    -2.966432
                      RKUPP2 =     2.198500

 COMPONENT CALCI-01
      POLAR PARAMETER RKUPP0 =     0.711866
                      RKUPP1 =    -4.328770
                      RKUPP2 =    -5.480186

 COMPONENT LANTH-01
      POLAR PARAMETER RKUPP0 =     0.000000
                      RKUPP1 =     0.000000
                      RKUPP2 =     0.000000

 COMPONENT AMMON-01
      POLAR PARAMETER RKUPP0 =     0.036832
                      RKUPP1 =    -0.837919
                      RKUPP2 =    -0.809507

 COMPONENT GLYCE-01
      POLAR PARAMETER RKUPP0 =     0.000000
                      RKUPP1 =     0.000000
                      RKUPP2 =     0.000000

 COMPONENT NITROGEN
      POLAR PARAMETER RKUPP0 =     0.000000
                      RKUPP1 =     0.000000
                      RKUPP2 =     0.000000

 COMPONENT WATER   
      POLAR PARAMETER RKUPP0 =     0.065549
                      RKUPP1 =    -0.560763
                      RKUPP2 =    -1.260662

 THE FOLLOWING BINARY-INTERACTION PARAMETERS ARE ESTIMATED FOR MODEL ESRKU:


 BINARY GLYCEROL - TRIOL-01

      INTERACTION PARAMETERS NOT PREDICTED BECAUSE UNIFAC GENERATES VERY LOW OR HIGH PRESSURE DATA

 BINARY GLYCEROL - TRILI-01

      INTERACTION PARAMETERS NOT PREDICTED BECAUSE UNIFAC GROUP PARAMETERS ARE MISSING

 BINARY GLYCEROL - METHA-01
      RKUKA0 =   -0.121950    
      RKUKA2 =     23.8381    
      RKULA0 =    0.341113E-01
      RKULA2 =    -10.0315    

      FOR     298.15 (K) <= T <=    318.15 (K)


 BINARY GLYCEROL - METHY-01

      INTERACTION PARAMETERS NOT PREDICTED BECAUSE UNIFAC GENERATES VERY LOW OR HIGH PRESSURE DATA

 BINARY GLYCEROL - METHY-02

      INTERACTION PARAMETERS NOT PREDICTED BECAUSE UNIFAC GENERATES VERY LOW OR HIGH PRESSURE DATA

 BINARY GLYCEROL - UREA    

      INTERACTION PARAMETERS NOT PREDICTED BECAUSE UNIFAC GROUP PARAMETERS ARE MISSING

 BINARY GLYCEROL - CALCI-01

      INTERACTION PARAMETERS NOT PREDICTED BECAUSE UNIFAC GROUP PARAMETERS ARE MISSING

 BINARY GLYCEROL - LANTH-01

      INTERACTION PARAMETERS CANNOT BE PREDICTED USING UNIFAC

 BINARY GLYCEROL - GLYCE-01

      INTERACTION PARAMETERS NOT PREDICTED BECAUSE UNIFAC GROUP PARAMETERS ARE MISSING

 BINARY GLYCEROL - WATER   
      RKUKA0 =    0.603974E-02
      RKUKA2 =    -15.3785    
      RKULA0 =    0.789942E-02
      RKULA2 =    -2.78712    

      FOR     298.15 (K) <= T <=    318.15 (K)


 BINARY TRIOL-01 - TRILI-01

      INTERACTION PARAMETERS NOT PREDICTED BECAUSE UNIFAC GROUP PARAMETERS ARE MISSING

 BINARY TRIOL-01 - METHA-01

      INTERACTION PARAMETERS NOT PREDICTED BECAUSE UNIFAC GENERATES VERY LOW OR HIGH PRESSURE DATA

 BINARY TRIOL-01 - METHY-01

      INTERACTION PARAMETERS NOT PREDICTED BECAUSE UNIFAC GENERATES VERY LOW OR HIGH PRESSURE DATA

 BINARY TRIOL-01 - METHY-02

      INTERACTION PARAMETERS NOT PREDICTED BECAUSE UNIFAC GENERATES VERY LOW OR HIGH PRESSURE DATA

 BINARY TRIOL-01 - UREA    

      INTERACTION PARAMETERS NOT PREDICTED BECAUSE UNIFAC GROUP PARAMETERS ARE MISSING

 BINARY TRIOL-01 - CALCI-01

      INTERACTION PARAMETERS NOT PREDICTED BECAUSE UNIFAC GROUP PARAMETERS ARE MISSING

 BINARY TRIOL-01 - LANTH-01

      INTERACTION PARAMETERS NOT PREDICTED BECAUSE UNIFAC GROUP PARAMETERS ARE MISSING

 BINARY TRIOL-01 - GLYCE-01

      INTERACTION PARAMETERS NOT PREDICTED BECAUSE UNIFAC GROUP PARAMETERS ARE MISSING

 BINARY TRIOL-01 - WATER   

      INTERACTION PARAMETERS NOT PREDICTED BECAUSE UNIFAC GENERATES VERY LOW OR HIGH PRESSURE DATA

 BINARY TRILI-01 - METHA-01

      INTERACTION PARAMETERS NOT PREDICTED BECAUSE UNIFAC GROUP PARAMETERS ARE MISSING

 BINARY TRILI-01 - METHY-01

      INTERACTION PARAMETERS NOT PREDICTED BECAUSE UNIFAC GROUP PARAMETERS ARE MISSING

 BINARY TRILI-01 - METHY-02

      INTERACTION PARAMETERS NOT PREDICTED BECAUSE UNIFAC GROUP PARAMETERS ARE MISSING

 BINARY TRILI-01 - UREA    

      INTERACTION PARAMETERS NOT PREDICTED BECAUSE UNIFAC GROUP PARAMETERS ARE MISSING

 BINARY TRILI-01 - CALCI-01

      INTERACTION PARAMETERS NOT PREDICTED BECAUSE UNIFAC GROUP PARAMETERS ARE MISSING

 BINARY TRILI-01 - LANTH-01

      INTERACTION PARAMETERS NOT PREDICTED BECAUSE UNIFAC GROUP PARAMETERS ARE MISSING

 BINARY TRILI-01 - GLYCE-01

      INTERACTION PARAMETERS NOT PREDICTED BECAUSE UNIFAC GROUP PARAMETERS ARE MISSING

 BINARY TRILI-01 - WATER   

      INTERACTION PARAMETERS NOT PREDICTED BECAUSE UNIFAC GROUP PARAMETERS ARE MISSING

 BINARY METHA-01 - METHY-01
      RKUKA0 =   -0.597541E-01
      RKUKA2 =     2.71431    
      RKULA0 =   -0.139340E-01
      RKULA2 =    -11.3968    

      FOR     298.15 (K) <= T <=    318.15 (K)


 BINARY METHA-01 - METHY-02
      RKUKA0 =    0.153105E-01
      RKUKA2 =    -25.2241    
      RKULA0 =   -0.182201E-02
      RKULA2 =    -16.6520    

      FOR     298.15 (K) <= T <=    318.15 (K)


 BINARY METHA-01 - UREA    

      INTERACTION PARAMETERS NOT PREDICTED BECAUSE UNIFAC GROUP PARAMETERS ARE MISSING

 BINARY METHA-01 - CALCI-01

      INTERACTION PARAMETERS NOT PREDICTED BECAUSE UNIFAC GROUP PARAMETERS ARE MISSING

 BINARY METHA-01 - LANTH-01

      INTERACTION PARAMETERS CANNOT BE PREDICTED USING UNIFAC

 BINARY METHA-01 - GLYCE-01

      INTERACTION PARAMETERS NOT PREDICTED BECAUSE UNIFAC GROUP PARAMETERS ARE MISSING

 BINARY METHA-01 - WATER   
      RKUKA0 =   -0.553952E-01
      RKUKA2 =    -9.48761    
      RKULA0 =    0.171613E-01
      RKULA2 =    -3.75214    

      FOR     298.15 (K) <= T <=    318.15 (K)


 BINARY METHY-01 - METHY-02

      INTERACTION PARAMETERS NOT PREDICTED BECAUSE UNIFAC GENERATES VERY LOW OR HIGH PRESSURE DATA

 BINARY METHY-01 - UREA    

      INTERACTION PARAMETERS NOT PREDICTED BECAUSE UNIFAC GROUP PARAMETERS ARE MISSING

 BINARY METHY-01 - CALCI-01

      INTERACTION PARAMETERS NOT PREDICTED BECAUSE UNIFAC GROUP PARAMETERS ARE MISSING

 BINARY METHY-01 - LANTH-01

      INTERACTION PARAMETERS NOT PREDICTED BECAUSE UNIFAC GROUP PARAMETERS ARE MISSING

 BINARY METHY-01 - GLYCE-01

      INTERACTION PARAMETERS NOT PREDICTED BECAUSE UNIFAC GROUP PARAMETERS ARE MISSING

 BINARY METHY-01 - WATER   
      RKUKA0 =    0.111729    
      RKUKA2 =    -102.712    
      RKULA0 =    0.254424    
      RKULA2 =    -28.7397    

      FOR     298.15 (K) <= T <=    318.15 (K)


 BINARY METHY-02 - UREA    

      INTERACTION PARAMETERS NOT PREDICTED BECAUSE UNIFAC GROUP PARAMETERS ARE MISSING

 BINARY METHY-02 - CALCI-01

      INTERACTION PARAMETERS NOT PREDICTED BECAUSE UNIFAC GROUP PARAMETERS ARE MISSING

 BINARY METHY-02 - LANTH-01

      INTERACTION PARAMETERS NOT PREDICTED BECAUSE UNIFAC GROUP PARAMETERS ARE MISSING

 BINARY METHY-02 - GLYCE-01

      INTERACTION PARAMETERS NOT PREDICTED BECAUSE UNIFAC GROUP PARAMETERS ARE MISSING

 BINARY METHY-02 - WATER   
      RKUKA0 =   -0.292058    
      RKUKA2 =     12.7089    
      RKULA0 =    0.632576    
      RKULA2 =    -152.434    

      FOR     298.15 (K) <= T <=    318.15 (K)


 BINARY UREA     - CALCI-01

      INTERACTION PARAMETERS NOT PREDICTED BECAUSE UNIFAC GROUP PARAMETERS ARE MISSING

 BINARY UREA     - LANTH-01

      INTERACTION PARAMETERS CANNOT BE PREDICTED USING UNIFAC

 BINARY UREA     - GLYCE-01

      INTERACTION PARAMETERS NOT PREDICTED BECAUSE UNIFAC GROUP PARAMETERS ARE MISSING

 BINARY UREA     - WATER   

      INTERACTION PARAMETERS NOT PREDICTED BECAUSE UNIFAC GROUP PARAMETERS ARE MISSING

 BINARY CALCI-01 - LANTH-01

      INTERACTION PARAMETERS CANNOT BE PREDICTED USING UNIFAC

 BINARY CALCI-01 - GLYCE-01

      INTERACTION PARAMETERS NOT PREDICTED BECAUSE UNIFAC GROUP PARAMETERS ARE MISSING

 BINARY CALCI-01 - WATER   

      INTERACTION PARAMETERS NOT PREDICTED BECAUSE UNIFAC GROUP PARAMETERS ARE MISSING

 BINARY LANTH-01 - GLYCE-01

      INTERACTION PARAMETERS CANNOT BE PREDICTED USING UNIFAC

 BINARY LANTH-01 - WATER   

      INTERACTION PARAMETERS CANNOT BE PREDICTED USING UNIFAC

 BINARY GLYCE-01 - WATER   

      INTERACTION PARAMETERS NOT PREDICTED BECAUSE UNIFAC GROUP PARAMETERS ARE MISSING

 *** CALCULATION TRACE ***


 *** FLOWSHEET ANALYSIS MESSAGES ***

 FLOWSHEET CONNECTIVITY BY STREAMS       

 FLOWSHEET SECTION GLOBAL  
   STREAM     SOURCE     DEST           STREAM     SOURCE     DEST
   CAOIN      ----       $C-3           METHANOL   ----       B1      
   OILS       ----       B1             UREAIN     ----       B11     
   LAOIN      ----       B11            WATERCOO   ----       B16     
   S5         $C-2       B3             S8         B4         HEATX1  
   GLYCEROL   B4         B9             S6         B3         B4      
   CATOUT     B3         ----           S4         B1         B17     
   METHOUT    B6         B18            BIO        B6         B23     
   METHOUT2   B9         B7             S11        B9         B11     
   S13        B8         B12            S15        B12        B13     
   LAOOUT     B12        ----           HOTAMMO    B13        B20     
   S17        B13        B15            S18        B14        B5      
   GCHOT      B14        HEATX2         S21        B15        B14     
   WATEROUT   HEATX1     B5             S2         HEATX1     B6      
   S9         B11        HEATX2         GCHOT2     HEATX2     B21     
   S10        HEATX2     B8             S3         B7         B22     
   S7         B7         ----           S1         B17        B10     
   S20        B16        ----           WATERHOT   B16        HEATX1  
   S23        B19        B18            S16        B10        $C-1    
   S14        B18        B16            GLYCRE     B5         B11     
   S12        B5         B20            COLDAMMO   B20        ----    
   S19        B20        B21            GCPROD     B21        ----    
   S24        B21        ----           S25        B23        B26     
   S26        B26        B22            S27        B26        ----    
   S22        B22        B19                                          

 FLOWSHEET CONNECTIVITY BY BLOCKS        

 FLOWSHEET SECTION GLOBAL  
   BLOCK        INLETS                         OUTLETS
   $C-1         S16                            S4                          
   $C-3         CAOIN                          CATIN                       
   $C-2         S5                             S5                          
   B4           S6                             S8 GLYCEROL                 
   B3           S5                             S6 CATOUT                   
   B1           OILS METHANOL                  S4                          
   B6           S2                             METHOUT BIO                 
   B9           GLYCEROL                       METHOUT2 S11                
   B8           S10                            S13                         
   B12          S13                            S15 LAOOUT                  
   B13          S15                            HOTAMMO S17                 
   B14          S21                            S18 GCHOT                   
   B15          S17                            S21                         
   HEATX1       WATERHOT S8                    WATEROUT S2                 
   B11          LAOIN UREAIN S11 GLYCRE        S9                          
   HEATX2       GCHOT S9                       GCHOT2 S10                  
   B7           METHOUT2                       S3 S7                       
   B17          S4                             S1                          
   B16          S14 WATERCOO                   S20 WATERHOT                
   B19          S22                            S23                         
   B10          S1                             S16                         
   B18          S23 METHOUT                    S14                         
   B5           S18 WATEROUT                   GLYCRE S12                  
   B20          HOTAMMO S12                    COLDAMMO S19                
   B21          GCHOT2 S19                     GCPROD S24                  
   B23          BIO                            S25                         
   B26          S25                            S26 S27                     
   B22          S3 S26                         S22                         

      BATCH CONVERGENCE BLOCK $BASVR01 HAS BEEN DEFINED

      BLOCK $OLVER02 (METHOD: WEGSTEIN) HAS BEEN DEFINED TO CONVERGE
               STREAMS: S14

      BLOCK $OLVER03 (METHOD: WEGSTEIN) HAS BEEN DEFINED TO CONVERGE
               STREAMS: S10

      COMPUTATION ORDER FOR THE FLOWSHEET IS:
      B1 B17 $C-3 B10 $C-1 
      B2.$BASVR01 B2.B2 B2.B1 
      (RETURN B2.$BASVR01) 
      $C-2 B3 B4 B9 B7 
      $OLVER02 B16 HEATX1 B6 B23 B26 B22 B19 B18 
      (RETURN $OLVER02) 
      $OLVER03 B8 B12 B13 B15 B14 B5 B11 HEATX2 
      (RETURN $OLVER03) 
      B20 B21 

Calculations begin                                                              time      0.10


 SIMULATION CALCULATIONS BEGIN                                                    TIME =      0.10

      ENTHALPY CALCULATION FOR INLET STREAM OILS OF BLOCK B1                      TIME =      0.10
      KODE = 2  NTRIAL =   3  T = 298.1500  P =  100000.      V =  0.00000      Q =  0.00000    

      ENTHALPY CALCULATION FOR INLET STREAM METHANOL OF BLOCK B1                  TIME =      0.10
      KODE = 2  NTRIAL =   1  T = 298.1500  P =  100000.      V =  0.00000      Q =  0.00000    

      UOS BLOCK B1       MODEL: MIXER                                             TIME =      0.10
      KODE = 1   NO. TEMP ITER =    1     TEMP =  298.150    
      KPHASE =    2 KODE =    1 T =  298.150     P =  100000.     Q =  0.00000    

      UOS BLOCK B17      MODEL: MIXER                                             TIME =      0.10
      KODE = 1   NO. TEMP ITER =    4     TEMP =  298.150    
      KPHASE =    2 KODE =    1 T =  298.150     P =  100000.     Q =  0.00000    

      ENTHALPY CALCULATION FOR INLET STREAM CAOIN OF BLOCK $C-3                   TIME =      0.10
      KODE = 2   NO. TEMP ITER =    1     TEMP =  298.150    
      KPHASE =    3 KODE =    2 T =  298.150     P =  100000.     Q =  0.00000    

      UOS BLOCK $C-3     MODEL: DUPL                                              TIME =      0.10

      UOS BLOCK B10      MODEL: HEATER                                            TIME =      0.10
      KODE = 2   NO. TEMP ITER =    1     TEMP =  338.150    
      KPHASE =    2 KODE =    2 T =  338.150     P =  100000.     Q =  308053.    

      UOS BLOCK $C-1     MODEL: DUPL                                              TIME =      0.10

      Batch Convergence Block $BASVR01 Hierarchy: B2                              TIME =      0.10

  *   WARNING WHILE EXECUTING BATCH CONVERGENC BLOCK: "$BASVR01" IN "B2"        
                                                               (WRTVARIN.1)     
      No active unit procedure is detected. The simulation will run to          
      the maximum integration time of 6.000 HR                                  

      Start task machine for batch B2.$BASVR01
         # Tasks =    0 NVTEAR =    0 NVTASK =    0 NVVARG =    0

      UOS BLOCK B2       MODEL: MIXER        HIERARCHY: B2                        TIME =      0.66
      KODE = 1   NO. TEMP ITER =    6     TEMP =  338.097    
      KPHASE =    2 KODE =    1 T =  338.097     P =  100000.     Q =  0.00000    

      UOS BLOCK B1       MODEL: BATCHOP      HIERARCHY: B2                        TIME =      0.66

      UOS BLOCK B1       MODEL: BATCHOP      HIERARCHY: B2                        TIME =      0.66
      STREAM B2.S5 WILL BE FLASHED FOR PROPERTY CALCULATIONS.
      KODE = 2   NO. TEMP ITER =    1     TEMP =  338.097    
      KPHASE =    2 KODE =    2 T =  338.097     P =  100000.     Q =-1.074539E-07

      UOS BLOCK B1       MODEL: BATCHOP      HIERARCHY: B2                        TIME =      0.85

      Integrating from  0.0000     to 0.10000E-01 by 0.10000E-01 HR

      UOS BLOCK B2       MODEL: MIXER        HIERARCHY: B2                        TIME =      0.90
      KODE = 1   NO. TEMP ITER =    1     TEMP =  338.097    
      KPHASE =    2 KODE =    1 T =  338.097     P =  100000.     Q =  0.00000    

      UOS BLOCK B1       MODEL: BATCHOP      HIERARCHY: B2                        TIME =      0.90

      UOS BLOCK B1       MODEL: BATCHOP      HIERARCHY: B2                        TIME =      0.92

      Integrating from 0.10000E-01 to 0.20000E-01 by 0.10000E-01 HR

      UOS BLOCK B2       MODEL: MIXER        HIERARCHY: B2                        TIME =      0.92
      KODE = 1   NO. TEMP ITER =    1     TEMP =  338.097    
      KPHASE =    2 KODE =    1 T =  338.097     P =  100000.     Q =  0.00000    

      UOS BLOCK B1       MODEL: BATCHOP      HIERARCHY: B2                        TIME =      0.92

      UOS BLOCK B1       MODEL: BATCHOP      HIERARCHY: B2                        TIME =      0.92

      Integrating from 0.20000E-01 to 0.30000E-01 by 0.10000E-01 HR

      UOS BLOCK B2       MODEL: MIXER        HIERARCHY: B2                        TIME =      0.92
      KODE = 1   NO. TEMP ITER =    1     TEMP =  338.097    
      KPHASE =    2 KODE =    1 T =  338.097     P =  100000.     Q =  0.00000    

      UOS BLOCK B1       MODEL: BATCHOP      HIERARCHY: B2                        TIME =      0.92

      UOS BLOCK B1       MODEL: BATCHOP      HIERARCHY: B2                        TIME =      0.92

      Integrating from 0.30000E-01 to 0.40000E-01 by 0.10000E-01 HR

      UOS BLOCK B2       MODEL: MIXER        HIERARCHY: B2                        TIME =      0.92
      KODE = 1   NO. TEMP ITER =    1     TEMP =  338.097    
      KPHASE =    2 KODE =    1 T =  338.097     P =  100000.     Q =  0.00000    

      UOS BLOCK B1       MODEL: BATCHOP      HIERARCHY: B2                        TIME =      0.92

      UOS BLOCK B1       MODEL: BATCHOP      HIERARCHY: B2                        TIME =      0.92

      Integrating from 0.40000E-01 to 0.50000E-01 by 0.10000E-01 HR

      UOS BLOCK B2       MODEL: MIXER        HIERARCHY: B2                        TIME =      0.92
      KODE = 1   NO. TEMP ITER =    1     TEMP =  338.097    
      KPHASE =    2 KODE =    1 T =  338.097     P =  100000.     Q =  0.00000    

      UOS BLOCK B1       MODEL: BATCHOP      HIERARCHY: B2                        TIME =      0.92

      UOS BLOCK B1       MODEL: BATCHOP      HIERARCHY: B2                        TIME =      1.70

      Integrating from 0.50000E-01 to 0.60000E-01 by 0.10000E-01 HR

      UOS BLOCK B2       MODEL: MIXER        HIERARCHY: B2                        TIME =      1.77
      KODE = 1   NO. TEMP ITER =    1     TEMP =  338.097    
      KPHASE =    2 KODE =    1 T =  338.097     P =  100000.     Q =  0.00000    

      UOS BLOCK B1       MODEL: BATCHOP      HIERARCHY: B2                        TIME =      1.77

      UOS BLOCK B1       MODEL: BATCHOP      HIERARCHY: B2                        TIME =      1.77

      Integrating from 0.60000E-01 to 0.70000E-01 by 0.10000E-01 HR

      UOS BLOCK B2       MODEL: MIXER        HIERARCHY: B2                        TIME =      1.77
      KODE = 1   NO. TEMP ITER =    1     TEMP =  338.097    
      KPHASE =    2 KODE =    1 T =  338.097     P =  100000.     Q =  0.00000    

      UOS BLOCK B1       MODEL: BATCHOP      HIERARCHY: B2                        TIME =      1.77

      UOS BLOCK B1       MODEL: BATCHOP      HIERARCHY: B2                        TIME =      1.77

      Integrating from 0.70000E-01 to 0.80000E-01 by 0.10000E-01 HR

      UOS BLOCK B2       MODEL: MIXER        HIERARCHY: B2                        TIME =      1.77
      KODE = 1   NO. TEMP ITER =    1     TEMP =  338.097    
      KPHASE =    2 KODE =    1 T =  338.097     P =  100000.     Q =  0.00000    

      UOS BLOCK B1       MODEL: BATCHOP      HIERARCHY: B2                        TIME =      1.77

      UOS BLOCK B1       MODEL: BATCHOP      HIERARCHY: B2                        TIME =      1.77

      Integrating from 0.80000E-01 to 0.90000E-01 by 0.10000E-01 HR

      UOS BLOCK B2       MODEL: MIXER        HIERARCHY: B2                        TIME =      1.77
      KODE = 1   NO. TEMP ITER =    1     TEMP =  338.097    
      KPHASE =    2 KODE =    1 T =  338.097     P =  100000.     Q =  0.00000    

      UOS BLOCK B1       MODEL: BATCHOP      HIERARCHY: B2                        TIME =      1.77

      UOS BLOCK B1       MODEL: BATCHOP      HIERARCHY: B2                        TIME =      1.77

      Integrating from 0.90000E-01 to 0.10000     by 0.10000E-01 HR

      UOS BLOCK B2       MODEL: MIXER        HIERARCHY: B2                        TIME =      1.77
      KODE = 1   NO. TEMP ITER =    1     TEMP =  338.097    
      KPHASE =    2 KODE =    1 T =  338.097     P =  100000.     Q =  0.00000    

      UOS BLOCK B1       MODEL: BATCHOP      HIERARCHY: B2                        TIME =      1.77

      UOS BLOCK B1       MODEL: BATCHOP      HIERARCHY: B2                        TIME =      1.89

      Integrating from 0.10000     to 0.11000     by 0.10000E-01 HR

      UOS BLOCK B2       MODEL: MIXER        HIERARCHY: B2                        TIME =      1.96
      KODE = 1   NO. TEMP ITER =    1     TEMP =  338.097    
      KPHASE =    2 KODE =    1 T =  338.097     P =  100000.     Q =  0.00000    

      UOS BLOCK B1       MODEL: BATCHOP      HIERARCHY: B2                        TIME =      1.96

      UOS BLOCK B1       MODEL: BATCHOP      HIERARCHY: B2                        TIME =      1.96

      Integrating from 0.11000     to 0.12000     by 0.10000E-01 HR

      UOS BLOCK B2       MODEL: MIXER        HIERARCHY: B2                        TIME =      1.96
      KODE = 1   NO. TEMP ITER =    1     TEMP =  338.097    
      KPHASE =    2 KODE =    1 T =  338.097     P =  100000.     Q =  0.00000    

      UOS BLOCK B1       MODEL: BATCHOP      HIERARCHY: B2                        TIME =      1.96

      UOS BLOCK B1       MODEL: BATCHOP      HIERARCHY: B2                        TIME =      1.96

      Integrating from 0.12000     to 0.13000     by 0.10000E-01 HR

      UOS BLOCK B2       MODEL: MIXER        HIERARCHY: B2                        TIME =      1.96
      KODE = 1   NO. TEMP ITER =    1     TEMP =  338.097    
      KPHASE =    2 KODE =    1 T =  338.097     P =  100000.     Q =  0.00000    

      UOS BLOCK B1       MODEL: BATCHOP      HIERARCHY: B2                        TIME =      1.96

      UOS BLOCK B1       MODEL: BATCHOP      HIERARCHY: B2                        TIME =      1.96

      Integrating from 0.13000     to 0.14000     by 0.10000E-01 HR

      UOS BLOCK B2       MODEL: MIXER        HIERARCHY: B2                        TIME =      1.96
      KODE = 1   NO. TEMP ITER =    1     TEMP =  338.097    
      KPHASE =    2 KODE =    1 T =  338.097     P =  100000.     Q =  0.00000    

      UOS BLOCK B1       MODEL: BATCHOP      HIERARCHY: B2                        TIME =      1.96

      UOS BLOCK B1       MODEL: BATCHOP      HIERARCHY: B2                        TIME =      1.96

      Integrating from 0.14000     to 0.15000     by 0.10000E-01 HR

      UOS BLOCK B2       MODEL: MIXER        HIERARCHY: B2                        TIME =      1.97
      KODE = 1   NO. TEMP ITER =    1     TEMP =  338.097    
      KPHASE =    2 KODE =    1 T =  338.097     P =  100000.     Q =  0.00000    

      UOS BLOCK B1       MODEL: BATCHOP      HIERARCHY: B2                        TIME =      1.97

      UOS BLOCK B1       MODEL: BATCHOP      HIERARCHY: B2                        TIME =      2.05

      Integrating from 0.15000     to 0.16000     by 0.10000E-01 HR

      UOS BLOCK B2       MODEL: MIXER        HIERARCHY: B2                        TIME =      2.10
      KODE = 1   NO. TEMP ITER =    1     TEMP =  338.097    
      KPHASE =    2 KODE =    1 T =  338.097     P =  100000.     Q =  0.00000    

      UOS BLOCK B1       MODEL: BATCHOP      HIERARCHY: B2                        TIME =      2.10

      UOS BLOCK B1       MODEL: BATCHOP      HIERARCHY: B2                        TIME =      2.10

      Integrating from 0.16000     to 0.17000     by 0.10000E-01 HR

      UOS BLOCK B2       MODEL: MIXER        HIERARCHY: B2                        TIME =      2.10
      KODE = 1   NO. TEMP ITER =    1     TEMP =  338.097    
      KPHASE =    2 KODE =    1 T =  338.097     P =  100000.     Q =  0.00000    

      UOS BLOCK B1       MODEL: BATCHOP      HIERARCHY: B2                        TIME =      2.10

      UOS BLOCK B1       MODEL: BATCHOP      HIERARCHY: B2                        TIME =      2.11

      Integrating from 0.17000     to 0.18000     by 0.10000E-01 HR

      UOS BLOCK B2       MODEL: MIXER        HIERARCHY: B2                        TIME =      2.11
      KODE = 1   NO. TEMP ITER =    1     TEMP =  338.097    
      KPHASE =    2 KODE =    1 T =  338.097     P =  100000.     Q =  0.00000    

      UOS BLOCK B1       MODEL: BATCHOP      HIERARCHY: B2                        TIME =      2.11

      UOS BLOCK B1       MODEL: BATCHOP      HIERARCHY: B2                        TIME =      2.11

      Integrating from 0.18000     to 0.19000     by 0.10000E-01 HR

      UOS BLOCK B2       MODEL: MIXER        HIERARCHY: B2                        TIME =      2.11
      KODE = 1   NO. TEMP ITER =    1     TEMP =  338.097    
      KPHASE =    2 KODE =    1 T =  338.097     P =  100000.     Q =  0.00000    

      UOS BLOCK B1       MODEL: BATCHOP      HIERARCHY: B2                        TIME =      2.11

      UOS BLOCK B1       MODEL: BATCHOP      HIERARCHY: B2                        TIME =      2.11

      Integrating from 0.19000     to 0.20000     by 0.10000E-01 HR

      UOS BLOCK B2       MODEL: MIXER        HIERARCHY: B2                        TIME =      2.11
      KODE = 1   NO. TEMP ITER =    1     TEMP =  338.097    
      KPHASE =    2 KODE =    1 T =  338.097     P =  100000.     Q =  0.00000    

      UOS BLOCK B1       MODEL: BATCHOP      HIERARCHY: B2                        TIME =      2.11

      UOS BLOCK B1       MODEL: BATCHOP      HIERARCHY: B2                        TIME =      2.18

      Integrating from 0.20000     to 0.21000     by 0.10000E-01 HR

      UOS BLOCK B2       MODEL: MIXER        HIERARCHY: B2                        TIME =      2.24
      KODE = 1   NO. TEMP ITER =    1     TEMP =  338.097    
      KPHASE =    2 KODE =    1 T =  338.097     P =  100000.     Q =  0.00000    

      UOS BLOCK B1       MODEL: BATCHOP      HIERARCHY: B2                        TIME =      2.24

      UOS BLOCK B1       MODEL: BATCHOP      HIERARCHY: B2                        TIME =      2.24

      Integrating from 0.21000     to 0.22000     by 0.10000E-01 HR

      UOS BLOCK B2       MODEL: MIXER        HIERARCHY: B2                        TIME =      2.24
      KODE = 1   NO. TEMP ITER =    1     TEMP =  338.097    
      KPHASE =    2 KODE =    1 T =  338.097     P =  100000.     Q =  0.00000    

      UOS BLOCK B1       MODEL: BATCHOP      HIERARCHY: B2                        TIME =      2.24

      UOS BLOCK B1       MODEL: BATCHOP      HIERARCHY: B2                        TIME =      2.24

      Integrating from 0.22000     to 0.23000     by 0.10000E-01 HR

      UOS BLOCK B2       MODEL: MIXER        HIERARCHY: B2                        TIME =      2.25
      KODE = 1   NO. TEMP ITER =    1     TEMP =  338.097    
      KPHASE =    2 KODE =    1 T =  338.097     P =  100000.     Q =  0.00000    

      UOS BLOCK B1       MODEL: BATCHOP      HIERARCHY: B2                        TIME =      2.25

      UOS BLOCK B1       MODEL: BATCHOP      HIERARCHY: B2                        TIME =      2.25

      Integrating from 0.23000     to 0.24000     by 0.10000E-01 HR

      UOS BLOCK B2       MODEL: MIXER        HIERARCHY: B2                        TIME =      2.25
      KODE = 1   NO. TEMP ITER =    1     TEMP =  338.097    
      KPHASE =    2 KODE =    1 T =  338.097     P =  100000.     Q =  0.00000    

      UOS BLOCK B1       MODEL: BATCHOP      HIERARCHY: B2                        TIME =      2.25

      UOS BLOCK B1       MODEL: BATCHOP      HIERARCHY: B2                        TIME =      2.25

      Integrating from 0.24000     to 0.25000     by 0.10000E-01 HR

      UOS BLOCK B2       MODEL: MIXER        HIERARCHY: B2                        TIME =      2.25
      KODE = 1   NO. TEMP ITER =    1     TEMP =  338.097    
      KPHASE =    2 KODE =    1 T =  338.097     P =  100000.     Q =  0.00000    

      UOS BLOCK B1       MODEL: BATCHOP      HIERARCHY: B2                        TIME =      2.25

      UOS BLOCK B1       MODEL: BATCHOP      HIERARCHY: B2                        TIME =      2.33

      Integrating from 0.25000     to 0.26000     by 0.10000E-01 HR

      UOS BLOCK B2       MODEL: MIXER        HIERARCHY: B2                        TIME =      2.37
      KODE = 1   NO. TEMP ITER =    1     TEMP =  338.097    
      KPHASE =    2 KODE =    1 T =  338.097     P =  100000.     Q =  0.00000    

      UOS BLOCK B1       MODEL: BATCHOP      HIERARCHY: B2                        TIME =      2.37

      UOS BLOCK B1       MODEL: BATCHOP      HIERARCHY: B2                        TIME =      2.38

      Integrating from 0.26000     to 0.27000     by 0.10000E-01 HR

      UOS BLOCK B2       MODEL: MIXER        HIERARCHY: B2                        TIME =      2.38
      KODE = 1   NO. TEMP ITER =    1     TEMP =  338.097    
      KPHASE =    2 KODE =    1 T =  338.097     P =  100000.     Q =  0.00000    

      UOS BLOCK B1       MODEL: BATCHOP      HIERARCHY: B2                        TIME =      2.38

      UOS BLOCK B1       MODEL: BATCHOP      HIERARCHY: B2                        TIME =      2.38

      Integrating from 0.27000     to 0.28000     by 0.10000E-01 HR

      UOS BLOCK B2       MODEL: MIXER        HIERARCHY: B2                        TIME =      2.38
      KODE = 1   NO. TEMP ITER =    1     TEMP =  338.097    
      KPHASE =    2 KODE =    1 T =  338.097     P =  100000.     Q =  0.00000    

      UOS BLOCK B1       MODEL: BATCHOP      HIERARCHY: B2                        TIME =      2.38

      UOS BLOCK B1       MODEL: BATCHOP      HIERARCHY: B2                        TIME =      2.38

      Integrating from 0.28000     to 0.29000     by 0.10000E-01 HR

      UOS BLOCK B2       MODEL: MIXER        HIERARCHY: B2                        TIME =      2.38
      KODE = 1   NO. TEMP ITER =    1     TEMP =  338.097    
      KPHASE =    2 KODE =    1 T =  338.097     P =  100000.     Q =  0.00000    

      UOS BLOCK B1       MODEL: BATCHOP      HIERARCHY: B2                        TIME =      2.38

      UOS BLOCK B1       MODEL: BATCHOP      HIERARCHY: B2                        TIME =      2.38

      Integrating from 0.29000     to 0.30000     by 0.10000E-01 HR

      UOS BLOCK B2       MODEL: MIXER        HIERARCHY: B2                        TIME =      2.38
      KODE = 1   NO. TEMP ITER =    1     TEMP =  338.097    
      KPHASE =    2 KODE =    1 T =  338.097     P =  100000.     Q =  0.00000    

      UOS BLOCK B1       MODEL: BATCHOP      HIERARCHY: B2                        TIME =      2.38

      UOS BLOCK B1       MODEL: BATCHOP      HIERARCHY: B2                        TIME =      2.46

      Integrating from 0.30000     to 0.31000     by 0.10000E-01 HR

      UOS BLOCK B2       MODEL: MIXER        HIERARCHY: B2                        TIME =      2.51
      KODE = 1   NO. TEMP ITER =    1     TEMP =  338.097    
      KPHASE =    2 KODE =    1 T =  338.097     P =  100000.     Q =  0.00000    

      UOS BLOCK B1       MODEL: BATCHOP      HIERARCHY: B2                        TIME =      2.51

      UOS BLOCK B1       MODEL: BATCHOP      HIERARCHY: B2                        TIME =      2.51

      Integrating from 0.31000     to 0.32000     by 0.10000E-01 HR

      UOS BLOCK B2       MODEL: MIXER        HIERARCHY: B2                        TIME =      2.51
      KODE = 1   NO. TEMP ITER =    1     TEMP =  338.097    
      KPHASE =    2 KODE =    1 T =  338.097     P =  100000.     Q =  0.00000    

      UOS BLOCK B1       MODEL: BATCHOP      HIERARCHY: B2                        TIME =      2.51

      UOS BLOCK B1       MODEL: BATCHOP      HIERARCHY: B2                        TIME =      2.51

      Integrating from 0.32000     to 0.33000     by 0.10000E-01 HR

      UOS BLOCK B2       MODEL: MIXER        HIERARCHY: B2                        TIME =      2.51
      KODE = 1   NO. TEMP ITER =    1     TEMP =  338.097    
      KPHASE =    2 KODE =    1 T =  338.097     P =  100000.     Q =  0.00000    

      UOS BLOCK B1       MODEL: BATCHOP      HIERARCHY: B2                        TIME =      2.51

      UOS BLOCK B1       MODEL: BATCHOP      HIERARCHY: B2                        TIME =      2.51

      Integrating from 0.33000     to 0.34000     by 0.10000E-01 HR

      UOS BLOCK B2       MODEL: MIXER        HIERARCHY: B2                        TIME =      2.51
      KODE = 1   NO. TEMP ITER =    1     TEMP =  338.097    
      KPHASE =    2 KODE =    1 T =  338.097     P =  100000.     Q =  0.00000    

      UOS BLOCK B1       MODEL: BATCHOP      HIERARCHY: B2                        TIME =      2.51

      UOS BLOCK B1       MODEL: BATCHOP      HIERARCHY: B2                        TIME =      2.51

      Integrating from 0.34000     to 0.35000     by 0.10000E-01 HR

      UOS BLOCK B2       MODEL: MIXER        HIERARCHY: B2                        TIME =      2.51
      KODE = 1   NO. TEMP ITER =    1     TEMP =  338.097    
      KPHASE =    2 KODE =    1 T =  338.097     P =  100000.     Q =  0.00000    

      UOS BLOCK B1       MODEL: BATCHOP      HIERARCHY: B2                        TIME =      2.51

      UOS BLOCK B1       MODEL: BATCHOP      HIERARCHY: B2                        TIME =      2.59

      Integrating from 0.35000     to 0.36000     by 0.10000E-01 HR

      UOS BLOCK B2       MODEL: MIXER        HIERARCHY: B2                        TIME =      2.65
      KODE = 1   NO. TEMP ITER =    1     TEMP =  338.097    
      KPHASE =    2 KODE =    1 T =  338.097     P =  100000.     Q =  0.00000    

      UOS BLOCK B1       MODEL: BATCHOP      HIERARCHY: B2                        TIME =      2.65

      UOS BLOCK B1       MODEL: BATCHOP      HIERARCHY: B2                        TIME =      2.65

      Integrating from 0.36000     to 0.37000     by 0.10000E-01 HR

      UOS BLOCK B2       MODEL: MIXER        HIERARCHY: B2                        TIME =      2.65
      KODE = 1   NO. TEMP ITER =    1     TEMP =  338.097    
      KPHASE =    2 KODE =    1 T =  338.097     P =  100000.     Q =  0.00000    

      UOS BLOCK B1       MODEL: BATCHOP      HIERARCHY: B2                        TIME =      2.65

      UOS BLOCK B1       MODEL: BATCHOP      HIERARCHY: B2                        TIME =      2.65

      Integrating from 0.37000     to 0.38000     by 0.10000E-01 HR

      UOS BLOCK B2       MODEL: MIXER        HIERARCHY: B2                        TIME =      2.65
      KODE = 1   NO. TEMP ITER =    1     TEMP =  338.097    
      KPHASE =    2 KODE =    1 T =  338.097     P =  100000.     Q =  0.00000    

      UOS BLOCK B1       MODEL: BATCHOP      HIERARCHY: B2                        TIME =      2.65

      UOS BLOCK B1       MODEL: BATCHOP      HIERARCHY: B2                        TIME =      2.65

      Integrating from 0.38000     to 0.39000     by 0.10000E-01 HR

      UOS BLOCK B2       MODEL: MIXER        HIERARCHY: B2                        TIME =      2.65
      KODE = 1   NO. TEMP ITER =    1     TEMP =  338.097    
      KPHASE =    2 KODE =    1 T =  338.097     P =  100000.     Q =  0.00000    

      UOS BLOCK B1       MODEL: BATCHOP      HIERARCHY: B2                        TIME =      2.65

      UOS BLOCK B1       MODEL: BATCHOP      HIERARCHY: B2                        TIME =      2.65

      Integrating from 0.39000     to 0.40000     by 0.10000E-01 HR

      UOS BLOCK B2       MODEL: MIXER        HIERARCHY: B2                        TIME =      2.65
      KODE = 1   NO. TEMP ITER =    1     TEMP =  338.097    
      KPHASE =    2 KODE =    1 T =  338.097     P =  100000.     Q =  0.00000    

      UOS BLOCK B1       MODEL: BATCHOP      HIERARCHY: B2                        TIME =      2.65

      UOS BLOCK B1       MODEL: BATCHOP      HIERARCHY: B2                        TIME =      2.74

      Integrating from 0.40000     to 0.41000     by 0.10000E-01 HR

      UOS BLOCK B2       MODEL: MIXER        HIERARCHY: B2                        TIME =      2.78
      KODE = 1   NO. TEMP ITER =    1     TEMP =  338.097    
      KPHASE =    2 KODE =    1 T =  338.097     P =  100000.     Q =  0.00000    

      UOS BLOCK B1       MODEL: BATCHOP      HIERARCHY: B2                        TIME =      2.78

      UOS BLOCK B1       MODEL: BATCHOP      HIERARCHY: B2                        TIME =      2.78

      Integrating from 0.41000     to 0.42000     by 0.10000E-01 HR

      UOS BLOCK B2       MODEL: MIXER        HIERARCHY: B2                        TIME =      2.78
      KODE = 1   NO. TEMP ITER =    1     TEMP =  338.097    
      KPHASE =    2 KODE =    1 T =  338.097     P =  100000.     Q =  0.00000    

      UOS BLOCK B1       MODEL: BATCHOP      HIERARCHY: B2                        TIME =      2.78

      UOS BLOCK B1       MODEL: BATCHOP      HIERARCHY: B2                        TIME =      2.78

      Integrating from 0.42000     to 0.43000     by 0.10000E-01 HR

      UOS BLOCK B2       MODEL: MIXER        HIERARCHY: B2                        TIME =      2.78
      KODE = 1   NO. TEMP ITER =    1     TEMP =  338.097    
      KPHASE =    2 KODE =    1 T =  338.097     P =  100000.     Q =  0.00000    

      UOS BLOCK B1       MODEL: BATCHOP      HIERARCHY: B2                        TIME =      2.78

      UOS BLOCK B1       MODEL: BATCHOP      HIERARCHY: B2                        TIME =      2.78

      Integrating from 0.43000     to 0.44000     by 0.10000E-01 HR

      UOS BLOCK B2       MODEL: MIXER        HIERARCHY: B2                        TIME =      2.78
      KODE = 1   NO. TEMP ITER =    1     TEMP =  338.097    
      KPHASE =    2 KODE =    1 T =  338.097     P =  100000.     Q =  0.00000    

      UOS BLOCK B1       MODEL: BATCHOP      HIERARCHY: B2                        TIME =      2.78

      UOS BLOCK B1       MODEL: BATCHOP      HIERARCHY: B2                        TIME =      2.78

      Integrating from 0.44000     to 0.45000     by 0.10000E-01 HR

      UOS BLOCK B2       MODEL: MIXER        HIERARCHY: B2                        TIME =      2.78
      KODE = 1   NO. TEMP ITER =    1     TEMP =  338.097    
      KPHASE =    2 KODE =    1 T =  338.097     P =  100000.     Q =  0.00000    

      UOS BLOCK B1       MODEL: BATCHOP      HIERARCHY: B2                        TIME =      2.78

      UOS BLOCK B1       MODEL: BATCHOP      HIERARCHY: B2                        TIME =      2.86

      Integrating from 0.45000     to 0.46000     by 0.10000E-01 HR

      UOS BLOCK B2       MODEL: MIXER        HIERARCHY: B2                        TIME =      2.91
      KODE = 1   NO. TEMP ITER =    1     TEMP =  338.097    
      KPHASE =    2 KODE =    1 T =  338.097     P =  100000.     Q =  0.00000    

      UOS BLOCK B1       MODEL: BATCHOP      HIERARCHY: B2                        TIME =      2.91

      UOS BLOCK B1       MODEL: BATCHOP      HIERARCHY: B2                        TIME =      2.91

      Integrating from 0.46000     to 0.47000     by 0.10000E-01 HR

      UOS BLOCK B2       MODEL: MIXER        HIERARCHY: B2                        TIME =      2.91
      KODE = 1   NO. TEMP ITER =    1     TEMP =  338.097    
      KPHASE =    2 KODE =    1 T =  338.097     P =  100000.     Q =  0.00000    

      UOS BLOCK B1       MODEL: BATCHOP      HIERARCHY: B2                        TIME =      2.91

      UOS BLOCK B1       MODEL: BATCHOP      HIERARCHY: B2                        TIME =      2.91

      Integrating from 0.47000     to 0.48000     by 0.10000E-01 HR

      UOS BLOCK B2       MODEL: MIXER        HIERARCHY: B2                        TIME =      2.91
      KODE = 1   NO. TEMP ITER =    1     TEMP =  338.097    
      KPHASE =    2 KODE =    1 T =  338.097     P =  100000.     Q =  0.00000    

      UOS BLOCK B1       MODEL: BATCHOP      HIERARCHY: B2                        TIME =      2.91

      UOS BLOCK B1       MODEL: BATCHOP      HIERARCHY: B2                        TIME =      2.91

      Integrating from 0.48000     to 0.49000     by 0.10000E-01 HR

      UOS BLOCK B2       MODEL: MIXER        HIERARCHY: B2                        TIME =      2.91
      KODE = 1   NO. TEMP ITER =    1     TEMP =  338.097    
      KPHASE =    2 KODE =    1 T =  338.097     P =  100000.     Q =  0.00000    

      UOS BLOCK B1       MODEL: BATCHOP      HIERARCHY: B2                        TIME =      2.91

      UOS BLOCK B1       MODEL: BATCHOP      HIERARCHY: B2                        TIME =      2.91

      Integrating from 0.49000     to 0.50000     by 0.10000E-01 HR

      UOS BLOCK B2       MODEL: MIXER        HIERARCHY: B2                        TIME =      2.91
      KODE = 1   NO. TEMP ITER =    1     TEMP =  338.097    
      KPHASE =    2 KODE =    1 T =  338.097     P =  100000.     Q =  0.00000    

      UOS BLOCK B1       MODEL: BATCHOP      HIERARCHY: B2                        TIME =      2.91

      UOS BLOCK B1       MODEL: BATCHOP      HIERARCHY: B2                        TIME =      3.00

      Integrating from 0.50000     to 0.51000     by 0.10000E-01 HR

      UOS BLOCK B2       MODEL: MIXER        HIERARCHY: B2                        TIME =      3.05
      KODE = 1   NO. TEMP ITER =    1     TEMP =  338.097    
      KPHASE =    2 KODE =    1 T =  338.097     P =  100000.     Q =  0.00000    

      UOS BLOCK B1       MODEL: BATCHOP      HIERARCHY: B2                        TIME =      3.05

      UOS BLOCK B1       MODEL: BATCHOP      HIERARCHY: B2                        TIME =      3.05

      Integrating from 0.51000     to 0.52000     by 0.10000E-01 HR

      UOS BLOCK B2       MODEL: MIXER        HIERARCHY: B2                        TIME =      3.05
      KODE = 1   NO. TEMP ITER =    1     TEMP =  338.097    
      KPHASE =    2 KODE =    1 T =  338.097     P =  100000.     Q =  0.00000    

      UOS BLOCK B1       MODEL: BATCHOP      HIERARCHY: B2                        TIME =      3.05

      UOS BLOCK B1       MODEL: BATCHOP      HIERARCHY: B2                        TIME =      3.05

      Integrating from 0.52000     to 0.53000     by 0.10000E-01 HR

      UOS BLOCK B2       MODEL: MIXER        HIERARCHY: B2                        TIME =      3.05
      KODE = 1   NO. TEMP ITER =    1     TEMP =  338.097    
      KPHASE =    2 KODE =    1 T =  338.097     P =  100000.     Q =  0.00000    

      UOS BLOCK B1       MODEL: BATCHOP      HIERARCHY: B2                        TIME =      3.05

      UOS BLOCK B1       MODEL: BATCHOP      HIERARCHY: B2                        TIME =      3.05

      Integrating from 0.53000     to 0.54000     by 0.10000E-01 HR

      UOS BLOCK B2       MODEL: MIXER        HIERARCHY: B2                        TIME =      3.05
      KODE = 1   NO. TEMP ITER =    1     TEMP =  338.097    
      KPHASE =    2 KODE =    1 T =  338.097     P =  100000.     Q =  0.00000    

      UOS BLOCK B1       MODEL: BATCHOP      HIERARCHY: B2                        TIME =      3.06

      UOS BLOCK B1       MODEL: BATCHOP      HIERARCHY: B2                        TIME =      3.06

      Integrating from 0.54000     to 0.55000     by 0.10000E-01 HR

      UOS BLOCK B2       MODEL: MIXER        HIERARCHY: B2                        TIME =      3.06
      KODE = 1   NO. TEMP ITER =    1     TEMP =  338.097    
      KPHASE =    2 KODE =    1 T =  338.097     P =  100000.     Q =  0.00000    

      UOS BLOCK B1       MODEL: BATCHOP      HIERARCHY: B2                        TIME =      3.06

      UOS BLOCK B1       MODEL: BATCHOP      HIERARCHY: B2                        TIME =      3.13

      Integrating from 0.55000     to 0.56000     by 0.10000E-01 HR

      UOS BLOCK B2       MODEL: MIXER        HIERARCHY: B2                        TIME =      3.18
      KODE = 1   NO. TEMP ITER =    1     TEMP =  338.097    
      KPHASE =    2 KODE =    1 T =  338.097     P =  100000.     Q =  0.00000    

      UOS BLOCK B1       MODEL: BATCHOP      HIERARCHY: B2                        TIME =      3.18

      UOS BLOCK B1       MODEL: BATCHOP      HIERARCHY: B2                        TIME =      3.18

      Integrating from 0.56000     to 0.57000     by 0.10000E-01 HR

      UOS BLOCK B2       MODEL: MIXER        HIERARCHY: B2                        TIME =      3.18
      KODE = 1   NO. TEMP ITER =    1     TEMP =  338.097    
      KPHASE =    2 KODE =    1 T =  338.097     P =  100000.     Q =  0.00000    

      UOS BLOCK B1       MODEL: BATCHOP      HIERARCHY: B2                        TIME =      3.18

      UOS BLOCK B1       MODEL: BATCHOP      HIERARCHY: B2                        TIME =      3.18

      Integrating from 0.57000     to 0.58000     by 0.10000E-01 HR

      UOS BLOCK B2       MODEL: MIXER        HIERARCHY: B2                        TIME =      3.18
      KODE = 1   NO. TEMP ITER =    1     TEMP =  338.097    
      KPHASE =    2 KODE =    1 T =  338.097     P =  100000.     Q =  0.00000    

      UOS BLOCK B1       MODEL: BATCHOP      HIERARCHY: B2                        TIME =      3.18

      UOS BLOCK B1       MODEL: BATCHOP      HIERARCHY: B2                        TIME =      3.18

      Integrating from 0.58000     to 0.59000     by 0.10000E-01 HR

      UOS BLOCK B2       MODEL: MIXER        HIERARCHY: B2                        TIME =      3.18
      KODE = 1   NO. TEMP ITER =    1     TEMP =  338.097    
      KPHASE =    2 KODE =    1 T =  338.097     P =  100000.     Q =  0.00000    

      UOS BLOCK B1       MODEL: BATCHOP      HIERARCHY: B2                        TIME =      3.18

      UOS BLOCK B1       MODEL: BATCHOP      HIERARCHY: B2                        TIME =      3.18

      Integrating from 0.59000     to 0.60000     by 0.10000E-01 HR

      UOS BLOCK B2       MODEL: MIXER        HIERARCHY: B2                        TIME =      3.18
      KODE = 1   NO. TEMP ITER =    1     TEMP =  338.097    
      KPHASE =    2 KODE =    1 T =  338.097     P =  100000.     Q =  0.00000    

      UOS BLOCK B1       MODEL: BATCHOP      HIERARCHY: B2                        TIME =      3.18

      UOS BLOCK B1       MODEL: BATCHOP      HIERARCHY: B2                        TIME =      3.26

      Integrating from 0.60000     to 0.61000     by 0.10000E-01 HR

      UOS BLOCK B2       MODEL: MIXER        HIERARCHY: B2                        TIME =      3.30
      KODE = 1   NO. TEMP ITER =    1     TEMP =  338.097    
      KPHASE =    2 KODE =    1 T =  338.097     P =  100000.     Q =  0.00000    

      UOS BLOCK B1       MODEL: BATCHOP      HIERARCHY: B2                        TIME =      3.30

      UOS BLOCK B1       MODEL: BATCHOP      HIERARCHY: B2                        TIME =      3.31

      Integrating from 0.61000     to 0.62000     by 0.10000E-01 HR

      UOS BLOCK B2       MODEL: MIXER        HIERARCHY: B2                        TIME =      3.31
      KODE = 1   NO. TEMP ITER =    1     TEMP =  338.097    
      KPHASE =    2 KODE =    1 T =  338.097     P =  100000.     Q =  0.00000    

      UOS BLOCK B1       MODEL: BATCHOP      HIERARCHY: B2                        TIME =      3.31

      UOS BLOCK B1       MODEL: BATCHOP      HIERARCHY: B2                        TIME =      3.31

      Integrating from 0.62000     to 0.63000     by 0.10000E-01 HR

      UOS BLOCK B2       MODEL: MIXER        HIERARCHY: B2                        TIME =      3.31
      KODE = 1   NO. TEMP ITER =    1     TEMP =  338.097    
      KPHASE =    2 KODE =    1 T =  338.097     P =  100000.     Q =  0.00000    

      UOS BLOCK B1       MODEL: BATCHOP      HIERARCHY: B2                        TIME =      3.31

      UOS BLOCK B1       MODEL: BATCHOP      HIERARCHY: B2                        TIME =      3.31

      Integrating from 0.63000     to 0.64000     by 0.10000E-01 HR

      UOS BLOCK B2       MODEL: MIXER        HIERARCHY: B2                        TIME =      3.31
      KODE = 1   NO. TEMP ITER =    1     TEMP =  338.097    
      KPHASE =    2 KODE =    1 T =  338.097     P =  100000.     Q =  0.00000    

      UOS BLOCK B1       MODEL: BATCHOP      HIERARCHY: B2                        TIME =      3.31

      UOS BLOCK B1       MODEL: BATCHOP      HIERARCHY: B2                        TIME =      3.31

      Integrating from 0.64000     to 0.65000     by 0.10000E-01 HR

      UOS BLOCK B2       MODEL: MIXER        HIERARCHY: B2                        TIME =      3.31
      KODE = 1   NO. TEMP ITER =    1     TEMP =  338.097    
      KPHASE =    2 KODE =    1 T =  338.097     P =  100000.     Q =  0.00000    

      UOS BLOCK B1       MODEL: BATCHOP      HIERARCHY: B2                        TIME =      3.31

      UOS BLOCK B1       MODEL: BATCHOP      HIERARCHY: B2                        TIME =      3.37

      Integrating from 0.65000     to 0.66000     by 0.10000E-01 HR

      UOS BLOCK B2       MODEL: MIXER        HIERARCHY: B2                        TIME =      3.42
      KODE = 1   NO. TEMP ITER =    1     TEMP =  338.097    
      KPHASE =    2 KODE =    1 T =  338.097     P =  100000.     Q =  0.00000    

      UOS BLOCK B1       MODEL: BATCHOP      HIERARCHY: B2                        TIME =      3.42

      UOS BLOCK B1       MODEL: BATCHOP      HIERARCHY: B2                        TIME =      3.42

      Integrating from 0.66000     to 0.67000     by 0.10000E-01 HR

      UOS BLOCK B2       MODEL: MIXER        HIERARCHY: B2                        TIME =      3.42
      KODE = 1   NO. TEMP ITER =    1     TEMP =  338.097    
      KPHASE =    2 KODE =    1 T =  338.097     P =  100000.     Q =  0.00000    

      UOS BLOCK B1       MODEL: BATCHOP      HIERARCHY: B2                        TIME =      3.42

      UOS BLOCK B1       MODEL: BATCHOP      HIERARCHY: B2                        TIME =      3.42

      Integrating from 0.67000     to 0.68000     by 0.10000E-01 HR

      UOS BLOCK B2       MODEL: MIXER        HIERARCHY: B2                        TIME =      3.42
      KODE = 1   NO. TEMP ITER =    1     TEMP =  338.097    
      KPHASE =    2 KODE =    1 T =  338.097     P =  100000.     Q =  0.00000    

      UOS BLOCK B1       MODEL: BATCHOP      HIERARCHY: B2                        TIME =      3.42

      UOS BLOCK B1       MODEL: BATCHOP      HIERARCHY: B2                        TIME =      3.42

      Integrating from 0.68000     to 0.69000     by 0.10000E-01 HR

      UOS BLOCK B2       MODEL: MIXER        HIERARCHY: B2                        TIME =      3.43
      KODE = 1   NO. TEMP ITER =    1     TEMP =  338.097    
      KPHASE =    2 KODE =    1 T =  338.097     P =  100000.     Q =  0.00000    

      UOS BLOCK B1       MODEL: BATCHOP      HIERARCHY: B2                        TIME =      3.43

      UOS BLOCK B1       MODEL: BATCHOP      HIERARCHY: B2                        TIME =      3.43

      Integrating from 0.69000     to 0.70000     by 0.10000E-01 HR

      UOS BLOCK B2       MODEL: MIXER        HIERARCHY: B2                        TIME =      3.43
      KODE = 1   NO. TEMP ITER =    1     TEMP =  338.097    
      KPHASE =    2 KODE =    1 T =  338.097     P =  100000.     Q =  0.00000    

      UOS BLOCK B1       MODEL: BATCHOP      HIERARCHY: B2                        TIME =      3.43

      UOS BLOCK B1       MODEL: BATCHOP      HIERARCHY: B2                        TIME =      3.51

      Integrating from 0.70000     to 0.71000     by 0.10000E-01 HR

      UOS BLOCK B2       MODEL: MIXER        HIERARCHY: B2                        TIME =      3.55
      KODE = 1   NO. TEMP ITER =    1     TEMP =  338.097    
      KPHASE =    2 KODE =    1 T =  338.097     P =  100000.     Q =  0.00000    

      UOS BLOCK B1       MODEL: BATCHOP      HIERARCHY: B2                        TIME =      3.56

      UOS BLOCK B1       MODEL: BATCHOP      HIERARCHY: B2                        TIME =      3.56

      Integrating from 0.71000     to 0.72000     by 0.10000E-01 HR

      UOS BLOCK B2       MODEL: MIXER        HIERARCHY: B2                        TIME =      3.56
      KODE = 1   NO. TEMP ITER =    1     TEMP =  338.097    
      KPHASE =    2 KODE =    1 T =  338.097     P =  100000.     Q =  0.00000    

      UOS BLOCK B1       MODEL: BATCHOP      HIERARCHY: B2                        TIME =      3.56

      UOS BLOCK B1       MODEL: BATCHOP      HIERARCHY: B2                        TIME =      3.56

      Integrating from 0.72000     to 0.73000     by 0.10000E-01 HR

      UOS BLOCK B2       MODEL: MIXER        HIERARCHY: B2                        TIME =      3.56
      KODE = 1   NO. TEMP ITER =    1     TEMP =  338.097    
      KPHASE =    2 KODE =    1 T =  338.097     P =  100000.     Q =  0.00000    

      UOS BLOCK B1       MODEL: BATCHOP      HIERARCHY: B2                        TIME =      3.56

      UOS BLOCK B1       MODEL: BATCHOP      HIERARCHY: B2                        TIME =      3.56

      Integrating from 0.73000     to 0.74000     by 0.10000E-01 HR

      UOS BLOCK B2       MODEL: MIXER        HIERARCHY: B2                        TIME =      3.56
      KODE = 1   NO. TEMP ITER =    1     TEMP =  338.097    
      KPHASE =    2 KODE =    1 T =  338.097     P =  100000.     Q =  0.00000    

      UOS BLOCK B1       MODEL: BATCHOP      HIERARCHY: B2                        TIME =      3.56

      UOS BLOCK B1       MODEL: BATCHOP      HIERARCHY: B2                        TIME =      3.56

      Integrating from 0.74000     to 0.75000     by 0.10000E-01 HR

      UOS BLOCK B2       MODEL: MIXER        HIERARCHY: B2                        TIME =      3.56
      KODE = 1   NO. TEMP ITER =    1     TEMP =  338.097    
      KPHASE =    2 KODE =    1 T =  338.097     P =  100000.     Q =  0.00000    

      UOS BLOCK B1       MODEL: BATCHOP      HIERARCHY: B2                        TIME =      3.56

      UOS BLOCK B1       MODEL: BATCHOP      HIERARCHY: B2                        TIME =      3.64

      Integrating from 0.75000     to 0.76000     by 0.10000E-01 HR

      UOS BLOCK B2       MODEL: MIXER        HIERARCHY: B2                        TIME =      3.69
      KODE = 1   NO. TEMP ITER =    1     TEMP =  338.097    
      KPHASE =    2 KODE =    1 T =  338.097     P =  100000.     Q =  0.00000    

      UOS BLOCK B1       MODEL: BATCHOP      HIERARCHY: B2                        TIME =      3.69

      UOS BLOCK B1       MODEL: BATCHOP      HIERARCHY: B2                        TIME =      3.69

[...]
      KODE = 1  NTRIAL =   2  T = 342.2287  P =  100000.      V =  0.00000      Q =  0.00000    
      NO. TEMP ITER =    4     TEMP =  342.058    
      KODE = 1  NTRIAL =   2  T = 342.0576  P =  100000.      V =  0.00000      Q =  0.00000    
      NO. TEMP ITER =    4     TEMP =  341.886    
      KODE = 1  NTRIAL =   2  T = 341.8865  P =  100000.      V =  0.00000      Q =  0.00000    
      NO. TEMP ITER =    4     TEMP =  341.715    
      KODE = 1  NTRIAL =   2  T = 341.7154  P =  100000.      V =  0.00000      Q =  0.00000    
      NO. TEMP ITER =    4     TEMP =  341.544    
      KODE = 1  NTRIAL =   2  T = 341.5443  P =  100000.      V =  0.00000      Q =  0.00000    
      NO. TEMP ITER =    4     TEMP =  341.373    
      KODE = 1  NTRIAL =   2  T = 341.3732  P =  100000.      V =  0.00000      Q =  0.00000    
      NO. TEMP ITER =    4     TEMP =  341.202    
      KODE = 1  NTRIAL =   2  T = 341.2021  P =  100000.      V =  0.00000      Q =  0.00000    
      NO. TEMP ITER =    4     TEMP =  341.031    
      KODE = 1  NTRIAL =   2  T = 341.0310  P =  100000.      V =  0.00000      Q =  0.00000    
      NO. TEMP ITER =    4     TEMP =  340.860    
      KODE = 1  NTRIAL =   2  T = 340.8600  P =  100000.      V =  0.00000      Q =  0.00000    
      NO. TEMP ITER =    4     TEMP =  340.689    
      KODE = 1  NTRIAL =   2  T = 340.6889  P =  100000.      V =  0.00000      Q =  0.00000    
      NO. TEMP ITER =    4     TEMP =  340.518    
      KODE = 1  NTRIAL =   2  T = 340.5179  P =  100000.      V =  0.00000      Q =  0.00000    
      NO. TEMP ITER =    4     TEMP =  340.347    
      KODE = 1  NTRIAL =   2  T = 340.3468  P =  100000.      V =  0.00000      Q =  0.00000    
      NO. TEMP ITER =    4     TEMP =  340.176    
      KODE = 1  NTRIAL =   2  T = 340.1758  P =  100000.      V =  0.00000      Q =  0.00000    
      NO. TEMP ITER =    4     TEMP =  340.005    
      KODE = 1  NTRIAL =   2  T = 340.0048  P =  100000.      V =  0.00000      Q =  0.00000    
      NO. TEMP ITER =    4     TEMP =  339.834    
      KODE = 1  NTRIAL =   2  T = 339.8337  P =  100000.      V =  0.00000      Q =  0.00000    
      NO. TEMP ITER =    4     TEMP =  339.663    
      KODE = 1  NTRIAL =   2  T = 339.6627  P =  100000.      V =  0.00000      Q =  0.00000    
      NO. TEMP ITER =    4     TEMP =  339.492    
      KODE = 1  NTRIAL =   2  T = 339.4917  P =  100000.      V =  0.00000      Q =  0.00000    
      NO. TEMP ITER =    4     TEMP =  339.321    
      KODE = 1  NTRIAL =   2  T = 339.3207  P =  100000.      V =  0.00000      Q =  0.00000    
      NO. TEMP ITER =    4     TEMP =  339.150    
      KODE = 1  NTRIAL =   2  T = 339.1497  P =  100000.      V =  0.00000      Q =  0.00000    

      BEGIN HOT-TQCURVE  INLET   
      KODE = 1  NTRIAL =   8  T = 547.9211  P =  100000.      V =  1.00000      Q =  0.00000    
      KODE = 1  NTRIAL =   4  T = 545.8876  P =  100000.      V = 0.943287      Q =  0.00000    
      KODE = 1  NTRIAL =   4  T = 543.7738  P =  100000.      V = 0.886347      Q =  0.00000    
      KODE = 1  NTRIAL =   4  T = 541.5402  P =  100000.      V = 0.829331      Q =  0.00000    
      KODE = 1  NTRIAL =   4  T = 539.1389  P =  100000.      V = 0.772398      Q =  0.00000    
      KODE = 1  NTRIAL =   4  T = 536.5152  P =  100000.      V = 0.715698      Q =  0.00000    
      KODE = 1  NTRIAL =   4  T = 533.6108  P =  100000.      V = 0.659359      Q =  0.00000    
      KODE = 1  NTRIAL =   4  T = 530.3682  P =  100000.      V = 0.603467      Q =  0.00000    
      KODE = 1  NTRIAL =   5  T = 526.7405  P =  100000.      V = 0.548036      Q =  0.00000    
      KODE = 1  NTRIAL =   5  T = 522.7066  P =  100000.      V = 0.492956      Q =  0.00000    
      KODE = 1  NTRIAL =   5  T = 518.2938  P =  100000.      V = 0.437948      Q =  0.00000    
      KODE = 1  NTRIAL =   5  T = 513.5963  P =  100000.      V = 0.382546      Q =  0.00000    
      KODE = 1  NTRIAL =   5  T = 508.7715  P =  100000.      V = 0.326174      Q =  0.00000    
      KODE = 1  NTRIAL =   5  T = 503.9936  P =  100000.      V = 0.268355      Q =  0.00000    
      KODE = 1  NTRIAL =   5  T = 499.3682  P =  100000.      V = 0.208995      Q =  0.00000    
      KODE = 1  NTRIAL =   5  T = 494.8091  P =  100000.      V = 0.148801      Q =  0.00000    
      KODE = 1  NTRIAL =   5  T = 489.7280  P =  100000.      V = 9.048008E-02  Q =  0.00000    
      KODE = 1  NTRIAL =   5  T = 481.9582  P =  100000.      V = 4.313620E-02  Q =  0.00000    
      KODE = 1  NTRIAL =   5  T = 468.4158  P =  100000.      V = 1.938524E-02  Q =  0.00000    
      KODE = 1  NTRIAL =   6  T = 451.0752  P =  100000.      V = 1.069104E-02  Q =  0.00000    
      KODE = 1  NTRIAL =   6  T = 432.3985  P =  100000.      V = 6.596218E-03  Q =  0.00000    
      KODE = 1  NTRIAL =   6  T = 413.1500  P =  100000.      V = 3.735812E-03  Q =  0.00000    

      BEGIN COLD-TQCURVE INLET   

      BEGIN HOT-TQCURVE  INLET   
      END HEATX TQ-CURVE CALCULATIONS FOR BLOCK B5      

      GENERATING RESULTS FOR UOS BLOCK B20      MODEL: HEATX                      TIME =     18.77
      SPECIFICATION: HOT OUTLET TEMP       363.15    
      FLOW TYPE:     COUNTERCURRENT  
      HOT:  TIN=  437.32  PIN= 50000.       TOUT=  363.15  POUT= 50000.    
      COLD: TIN=  342.74  PIN=0.10000E+06   TOUT=  345.01  POUT=0.10000E+06
      AREA=0.26596           DUTY= 10770.           FT=1.00000

      BEGIN HEATX TQ-CURVE CALCULATIONS FOR BLOCK B20     

      BEGIN COLD-TQCURVE INLET   
      NO. TEMP ITER =    4     TEMP =  345.009    
      KODE = 1  NTRIAL =   2  T = 345.0092  P =  100000.      V =  0.00000      Q =  0.00000    
      NO. TEMP ITER =    4     TEMP =  344.901    
      KODE = 1  NTRIAL =   2  T = 344.9012  P =  100000.      V =  0.00000      Q =  0.00000    
      NO. TEMP ITER =    4     TEMP =  344.793    
      KODE = 1  NTRIAL =   2  T = 344.7933  P =  100000.      V =  0.00000      Q =  0.00000    
      NO. TEMP ITER =    4     TEMP =  344.685    
      KODE = 1  NTRIAL =   2  T = 344.6853  P =  100000.      V =  0.00000      Q =  0.00000    
      NO. TEMP ITER =    4     TEMP =  344.577    
      KODE = 1  NTRIAL =   2  T = 344.5773  P =  100000.      V =  0.00000      Q =  0.00000    
      NO. TEMP ITER =    4     TEMP =  344.469    
      KODE = 1  NTRIAL =   2  T = 344.4693  P =  100000.      V =  0.00000      Q =  0.00000    
      NO. TEMP ITER =    4     TEMP =  344.361    
      KODE = 1  NTRIAL =   2  T = 344.3614  P =  100000.      V =  0.00000      Q =  0.00000    
      NO. TEMP ITER =    4     TEMP =  344.253    
      KODE = 1  NTRIAL =   2  T = 344.2534  P =  100000.      V =  0.00000      Q =  0.00000    
      NO. TEMP ITER =    4     TEMP =  344.145    
      KODE = 1  NTRIAL =   2  T = 344.1454  P =  100000.      V =  0.00000      Q =  0.00000    
      NO. TEMP ITER =    4     TEMP =  344.037    
      KODE = 1  NTRIAL =   2  T = 344.0374  P =  100000.      V =  0.00000      Q =  0.00000    
      NO. TEMP ITER =    4     TEMP =  343.929    
      KODE = 1  NTRIAL =   2  T = 343.9295  P =  100000.      V =  0.00000      Q =  0.00000    
      NO. TEMP ITER =    4     TEMP =  343.822    
      KODE = 1  NTRIAL =   2  T = 343.8215  P =  100000.      V =  0.00000      Q =  0.00000    
      NO. TEMP ITER =    4     TEMP =  343.714    
      KODE = 1  NTRIAL =   2  T = 343.7136  P =  100000.      V =  0.00000      Q =  0.00000    
      NO. TEMP ITER =    4     TEMP =  343.606    
      KODE = 1  NTRIAL =   2  T = 343.6056  P =  100000.      V =  0.00000      Q =  0.00000    
      NO. TEMP ITER =    4     TEMP =  343.498    
      KODE = 1  NTRIAL =   2  T = 343.4976  P =  100000.      V =  0.00000      Q =  0.00000    
      NO. TEMP ITER =    4     TEMP =  343.390    
      KODE = 1  NTRIAL =   2  T = 343.3897  P =  100000.      V =  0.00000      Q =  0.00000    
      NO. TEMP ITER =    4     TEMP =  343.282    
      KODE = 1  NTRIAL =   2  T = 343.2817  P =  100000.      V =  0.00000      Q =  0.00000    
      NO. TEMP ITER =    4     TEMP =  343.174    
      KODE = 1  NTRIAL =   2  T = 343.1738  P =  100000.      V =  0.00000      Q =  0.00000    
      NO. TEMP ITER =    4     TEMP =  343.066    
      KODE = 1  NTRIAL =   2  T = 343.0659  P =  100000.      V =  0.00000      Q =  0.00000    
      NO. TEMP ITER =    4     TEMP =  342.958    
      KODE = 1  NTRIAL =   2  T = 342.9579  P =  100000.      V =  0.00000      Q =  0.00000    
      NO. TEMP ITER =    4     TEMP =  342.850    
      KODE = 1  NTRIAL =   2  T = 342.8500  P =  100000.      V =  0.00000      Q =  0.00000    
      NO. TEMP ITER =    4     TEMP =  342.742    
      KODE = 1  NTRIAL =   2  T = 342.7420  P =  100000.      V =  0.00000      Q =  0.00000    

      BEGIN HOT-TQCURVE  INLET   
      KODE = 1  NTRIAL =  12  T = 437.3234  P =  50000.0      V =  1.00000      Q =  0.00000    
      KODE = 1  NTRIAL =   4  T = 431.4231  P =  50000.0      V = 0.998671      Q =  0.00000    
      KODE = 1  NTRIAL =   5  T = 425.2001  P =  50000.0      V = 0.997451      Q =  0.00000    
      KODE = 1  NTRIAL =   5  T = 418.8267  P =  50000.0      V = 0.996229      Q =  0.00000    
      KODE = 1  NTRIAL =   5  T = 412.5128  P =  50000.0      V = 0.994874      Q =  0.00000    
      KODE = 1  NTRIAL =   5  T = 406.4753  P =  50000.0      V = 0.993245      Q =  0.00000    
      KODE = 1  NTRIAL =   6  T = 400.9681  P =  50000.0      V = 0.991173      Q =  0.00000    
      KODE = 1  NTRIAL =   6  T = 396.2691  P =  50000.0      V = 0.988480      Q =  0.00000    
      KODE = 1  NTRIAL =   5  T = 392.4983  P =  50000.0      V = 0.985107      Q =  0.00000    
      KODE = 1  NTRIAL =   5  T = 389.5120  P =  50000.0      V = 0.981179      Q =  0.00000    
      KODE = 1  NTRIAL =   5  T = 387.0520  P =  50000.0      V = 0.976894      Q =  0.00000    
      KODE = 1  NTRIAL =   5  T = 384.9003  P =  50000.0      V = 0.972411      Q =  0.00000    
      KODE = 1  NTRIAL =   5  T = 382.9115  P =  50000.0      V = 0.967837      Q =  0.00000    
      KODE = 1  NTRIAL =   5  T = 380.9934  P =  50000.0      V = 0.963238      Q =  0.00000    
      KODE = 1  NTRIAL =   5  T = 379.0856  P =  50000.0      V = 0.958660      Q =  0.00000    
      KODE = 1  NTRIAL =   5  T = 377.1454  P =  50000.0      V = 0.954134      Q =  0.00000    
      KODE = 1  NTRIAL =   5  T = 375.1398  P =  50000.0      V = 0.949685      Q =  0.00000    
      KODE = 1  NTRIAL =   5  T = 373.0400  P =  50000.0      V = 0.945336      Q =  0.00000    
      KODE = 1  NTRIAL =   5  T = 370.8194  P =  50000.0      V = 0.941108      Q =  0.00000    
      KODE = 1  NTRIAL =   5  T = 368.4506  P =  50000.0      V = 0.937022      Q =  0.00000    
      KODE = 1  NTRIAL =   4  T = 365.9048  P =  50000.0      V = 0.933100      Q =  0.00000    
      KODE = 1  NTRIAL =   4  T = 363.1500  P =  50000.0      V = 0.929366      Q =  0.00000    

      BEGIN COLD-TQCURVE INLET   

      BEGIN HOT-TQCURVE  INLET   
      END HEATX TQ-CURVE CALCULATIONS FOR BLOCK B20     

      GENERATING RESULTS FOR UOS BLOCK B21      MODEL: HEATX                      TIME =     18.77
      SPECIFICATION: HOT OUTLET TEMP       363.15    
      FLOW TYPE:     COUNTERCURRENT  
      HOT:  TIN=  467.83  PIN=0.10000E+06   TOUT=  363.15  POUT=0.10000E+06
      COLD: TIN=  345.01  PIN=0.10000E+06   TOUT=  348.52  POUT=0.10000E+06
      AREA=0.36514           DUTY= 16670.           FT=1.00000

      BEGIN HEATX TQ-CURVE CALCULATIONS FOR BLOCK B21     

      BEGIN COLD-TQCURVE INLET   
      NO. TEMP ITER =    4     TEMP =  348.520    
      KODE = 1  NTRIAL =   2  T = 348.5203  P =  100000.      V =  0.00000      Q =  0.00000    
      NO. TEMP ITER =    4     TEMP =  348.353    
      KODE = 1  NTRIAL =   2  T = 348.3530  P =  100000.      V =  0.00000      Q =  0.00000    
      NO. TEMP ITER =    4     TEMP =  348.186    
      KODE = 1  NTRIAL =   2  T = 348.1858  P =  100000.      V =  0.00000      Q =  0.00000    
      NO. TEMP ITER =    4     TEMP =  348.019    
      KODE = 1  NTRIAL =   2  T = 348.0185  P =  100000.      V =  0.00000      Q =  0.00000    
      NO. TEMP ITER =    4     TEMP =  347.851    
      KODE = 1  NTRIAL =   2  T = 347.8513  P =  100000.      V =  0.00000      Q =  0.00000    
      NO. TEMP ITER =    4     TEMP =  347.684    
      KODE = 1  NTRIAL =   2  T = 347.6841  P =  100000.      V =  0.00000      Q =  0.00000    
      NO. TEMP ITER =    4     TEMP =  347.517    
      KODE = 1  NTRIAL =   2  T = 347.5169  P =  100000.      V =  0.00000      Q =  0.00000    
      NO. TEMP ITER =    4     TEMP =  347.350    
      KODE = 1  NTRIAL =   2  T = 347.3497  P =  100000.      V =  0.00000      Q =  0.00000    
      NO. TEMP ITER =    4     TEMP =  347.182    
      KODE = 1  NTRIAL =   2  T = 347.1825  P =  100000.      V =  0.00000      Q =  0.00000    
      NO. TEMP ITER =    4     TEMP =  347.015    
      KODE = 1  NTRIAL =   2  T = 347.0153  P =  100000.      V =  0.00000      Q =  0.00000    
      NO. TEMP ITER =    4     TEMP =  346.848    
      KODE = 1  NTRIAL =   2  T = 346.8481  P =  100000.      V =  0.00000      Q =  0.00000    
      NO. TEMP ITER =    4     TEMP =  346.681    
      KODE = 1  NTRIAL =   2  T = 346.6809  P =  100000.      V =  0.00000      Q =  0.00000    
      NO. TEMP ITER =    4     TEMP =  346.514    
      KODE = 1  NTRIAL =   2  T = 346.5137  P =  100000.      V =  0.00000      Q =  0.00000    
      NO. TEMP ITER =    4     TEMP =  346.347    
      KODE = 1  NTRIAL =   2  T = 346.3465  P =  100000.      V =  0.00000      Q =  0.00000    
      NO. TEMP ITER =    4     TEMP =  346.179    
      KODE = 1  NTRIAL =   2  T = 346.1793  P =  100000.      V =  0.00000      Q =  0.00000    
      NO. TEMP ITER =    4     TEMP =  346.012    
      KODE = 1  NTRIAL =   2  T = 346.0122  P =  100000.      V =  0.00000      Q =  0.00000    
      NO. TEMP ITER =    4     TEMP =  345.845    
      KODE = 1  NTRIAL =   2  T = 345.8450  P =  100000.      V =  0.00000      Q =  0.00000    
      NO. TEMP ITER =    4     TEMP =  345.678    
      KODE = 1  NTRIAL =   2  T = 345.6778  P =  100000.      V =  0.00000      Q =  0.00000    
      NO. TEMP ITER =    4     TEMP =  345.511    
      KODE = 1  NTRIAL =   2  T = 345.5107  P =  100000.      V =  0.00000      Q =  0.00000    
      NO. TEMP ITER =    4     TEMP =  345.344    
      KODE = 1  NTRIAL =   2  T = 345.3435  P =  100000.      V =  0.00000      Q =  0.00000    
      NO. TEMP ITER =    4     TEMP =  345.176    
      KODE = 1  NTRIAL =   2  T = 345.1764  P =  100000.      V =  0.00000      Q =  0.00000    
      NO. TEMP ITER =    4     TEMP =  345.009    
      KODE = 1  NTRIAL =   2  T = 345.0092  P =  100000.      V =  0.00000      Q =  0.00000    

      BEGIN HOT-TQCURVE  INLET   
      NO. TEMP ITER =    5     TEMP =  467.826    
      KODE = 1  NTRIAL =   3  T = 467.8259  P =  100000.      V =  0.00000      Q =  0.00000    
      NO. TEMP ITER =    5     TEMP =  463.029    
      KODE = 1  NTRIAL =   3  T = 463.0295  P =  100000.      V =  0.00000      Q =  0.00000    
      NO. TEMP ITER =    5     TEMP =  458.215    
      KODE = 1  NTRIAL =   3  T = 458.2148  P =  100000.      V =  0.00000      Q =  0.00000    
      NO. TEMP ITER =    5     TEMP =  453.382    
      KODE = 1  NTRIAL =   3  T = 453.3817  P =  100000.      V =  0.00000      Q =  0.00000    
      NO. TEMP ITER =    6     TEMP =  448.530    
      KODE = 1  NTRIAL =   3  T = 448.5302  P =  100000.      V =  0.00000      Q =  0.00000    
      NO. TEMP ITER =    6     TEMP =  443.660    
      KODE = 1  NTRIAL =   3  T = 443.6603  P =  100000.      V =  0.00000      Q =  0.00000    
      NO. TEMP ITER =    6     TEMP =  438.772    
      KODE = 1  NTRIAL =   3  T = 438.7718  P =  100000.      V =  0.00000      Q =  0.00000    
      NO. TEMP ITER =    6     TEMP =  433.865    
      KODE = 1  NTRIAL =   3  T = 433.8646  P =  100000.      V =  0.00000      Q =  0.00000    
      NO. TEMP ITER =    6     TEMP =  428.939    
      KODE = 1  NTRIAL =   3  T = 428.9387  P =  100000.      V =  0.00000      Q =  0.00000    
      NO. TEMP ITER =    6     TEMP =  423.994    
      KODE = 1  NTRIAL =   3  T = 423.9939  P =  100000.      V =  0.00000      Q =  0.00000    
      NO. TEMP ITER =    6     TEMP =  419.030    
      KODE = 1  NTRIAL =   3  T = 419.0302  P =  100000.      V =  0.00000      Q =  0.00000    
      NO. TEMP ITER =    6     TEMP =  414.047    
      KODE = 1  NTRIAL =   3  T = 414.0475  P =  100000.      V =  0.00000      Q =  0.00000    
      NO. TEMP ITER =    6     TEMP =  409.046    
      KODE = 1  NTRIAL =   3  T = 409.0456  P =  100000.      V =  0.00000      Q =  0.00000    
      NO. TEMP ITER =    6     TEMP =  404.024    
      KODE = 1  NTRIAL =   3  T = 404.0245  P =  100000.      V =  0.00000      Q =  0.00000    
      NO. TEMP ITER =    6     TEMP =  398.984    
      KODE = 1  NTRIAL =   3  T = 398.9840  P =  100000.      V =  0.00000      Q =  0.00000    
      NO. TEMP ITER =    6     TEMP =  393.924    
      KODE = 1  NTRIAL =   3  T = 393.9241  P =  100000.      V =  0.00000      Q =  0.00000    
      NO. TEMP ITER =    6     TEMP =  388.845    
      KODE = 1  NTRIAL =   3  T = 388.8447  P =  100000.      V =  0.00000      Q =  0.00000    
      NO. TEMP ITER =    6     TEMP =  383.746    
      KODE = 1  NTRIAL =   3  T = 383.7456  P =  100000.      V =  0.00000      Q =  0.00000    
      NO. TEMP ITER =    6     TEMP =  378.627    
      KODE = 1  NTRIAL =   3  T = 378.6266  P =  100000.      V =  0.00000      Q =  0.00000    
      NO. TEMP ITER =    6     TEMP =  373.488    
      KODE = 1  NTRIAL =   3  T = 373.4878  P =  100000.      V =  0.00000      Q =  0.00000    
      NO. TEMP ITER =    6     TEMP =  368.329    
      KODE = 1  NTRIAL =   3  T = 368.3290  P =  100000.      V =  0.00000      Q =  0.00000    
      NO. TEMP ITER =    6     TEMP =  363.150    
      KODE = 1  NTRIAL =   3  T = 363.1500  P =  100000.      V =  0.00000      Q =  0.00000    

      BEGIN COLD-TQCURVE INLET   

      BEGIN HOT-TQCURVE  INLET   
      END HEATX TQ-CURVE CALCULATIONS FOR BLOCK B21     

      GENERATING RESULTS FOR UOS BLOCK B23      MODEL: HEATER                     TIME =     18.78
      STREAM CATOUT WILL BE FLASHED FOR PROPERTY CALCULATIONS.
      KODE = 1   NO. TEMP ITER =    1     TEMP =  338.151    
      KPHASE =    3 KODE =    1 T =  338.151     P =  100000.     Q =  0.00000    
      STREAM LAOOUT WILL BE FLASHED FOR PROPERTY CALCULATIONS.
      KODE = 1   NO. TEMP ITER =    3     TEMP =  443.761    
      KPHASE =    3 KODE =    1 T =  443.761     P =  100000.     Q =  0.00000    
      STREAM S2 WILL BE FLASHED FOR PROPERTY CALCULATIONS.
      KODE = 2  NTRIAL =   3  T = 354.2405  P =  100000.      V = 2.436737E-02  Q = 2.350623E-02
      STREAM S25 WILL BE FLASHED FOR PROPERTY CALCULATIONS.
      KODE = 2  NTRIAL =   5  T = 388.1500  P =  100000.      V = 5.681462E-03  Q = 4.099455E-06

  **  ERROR WHILE GENERATING REPORT FOR STREAM: "S25"          (PEQGET.1)       
      FLASH RESULTS ARE WITHIN TOLERANCE, BUT MAY BE UNSATISFACTORY BECAUSE     
      EXTRAPOLATED EOS VAPOR VOLUME ROOT WAS USED FOR PROPERTY CALCULATIONS     
      (T= 388.1500 K, P= 1.0000D+05 Pa). CALCULATED PROPERTIES MAY BE           
      UNRELIABLE DUE TO FLASH PROBLEM.                                          
      STREAM S26 WILL BE FLASHED FOR PROPERTY CALCULATIONS.
      KODE = 2  NTRIAL =   2  T = 388.2462  P =  20000.0      V =  0.00000      Q = -410.896    
      STREAM S27 WILL BE FLASHED FOR PROPERTY CALCULATIONS.
      KODE = 2  NTRIAL =   4  T = 388.2462  P =  20000.0      V =  0.00000      Q = 2.016089E-10
      STREAM WATEROUT WILL BE FLASHED FOR PROPERTY CALCULATIONS.
      KODE = 2  NTRIAL =   1  T = 337.5966  P =  100000.      V =  0.00000      Q =-0.313444    
