
 + + + + + + + + + + + + + + + + + + + + + + + + + + + + + + + + + + + + + + + +
 + + + + + + + + + + + + + + + + + + + + + + + + + + + + + + + + + + + + + + + +
 + +                                                                         + +
 + +                      ASPEN PLUS CALCULATION HISTORY                     + +
 + +                                                                         + +
 + + + + + + + + + + + + + + + + + + + + + + + + + + + + + + + + + + + + + + + +
 + + + + + + + + + + + + + + + + + + + + + + + + + + + + + + + + + + + + + + + +

 ASPEN PLUS IS A TRADEMARK OF           HOTLINE:
 ASPEN TECHNOLOGY, INC.                 U.S.A. 888/996-7100
 781/221-6400                           EUROPE (44) 1189-226555

 PLATFORM: WINDOWS                                       MARCH 20, 2020      
 VERSION: 36.0   Build 249                               FRIDAY      
 INSTALLATION:                                           4:06:14 A.M.        

 THIS COPY OF ASPEN PLUS LICENSED TO RENSSELAER POLYTECHNIC I        


      ASPEN PLUS (R) IS A PROPRIETARY PRODUCT OF ASPEN TECHNOLOGY, INC.
      (ASPENTECH), AND MAY BE USED ONLY UNDER AGREEMENT WITH ASPENTECH.
      RESTRICTED RIGHTS LEGEND:  USE, REPRODUCTION, OR DISCLOSURE BY THE
      U.S. GOVERNMENT IS SUBJECT TO RESTRICTIONS SET FORTH IN 
      (i) FAR 52.227-14, Alt. III, (ii) FAR 52.227-19, (iii) DFARS 
      252.227-7013(c)(1)(ii), or (iv) THE ACCOMPANYING LICENSE AGREEMENT,
      AS APPLICABLE. FOR PURPOSES OF THE FAR, THIS SOFTWARE SHALL BE DEEMED
      TO BE "UNPUBLISHED" AND LICENSED WITH DISCLOSURE PROHIBITIONS.
      CONTRACTOR/SUBCONTRACTOR: ASPEN TECHNOLOGY, INC. 20 CROSBY DRIVE,
      BEDFORD, MA 01730.
 *** INPUT SUMMARY ***

 >>CURRENT RUN

   ORIGINAL RUN                           MARCH 20, 2020      
   4:06:14 A.M.                           FRIDAY      
   INPUT FILE: _0527dax.inm
   RUN ID : _0527dax
          1    ;
          2    ;Input file created by Aspen Plus Rel. 36.0 at 04:06:10 Fri Mar 20, 2020
          3    ;Directory   Runid FULL RECYCLE TEST$BACKUP
          4    ;
          5
          6
          7    DYNAMICS
          8        DYNAMICS RESULTS=ON
          9
         10    IN-UNITS MET PRESSURE=bar TEMPERATURE=C DELTA-T=C PDROP=bar  &
         11            INVERSE-PRES='1/bar' SHORT-LENGTH=mm
         12
         13    DEF-STREAMS CONVEN ALL
         14
         15    MODEL-OPTION
         16
         17    DATABANKS 'APV100 PURE36' / 'APV100 AQUEOUS' / 'APV100 SOLIDS' &
         18             / 'APV100 INORGANIC' / 'APESV100 AP-EOS' /  &
         19            'NISTV100 NIST-TRC' / NOASPENPCD
         20
         21    PROP-SOURCES 'APV100 PURE36' / 'APV100 AQUEOUS' /  &
         22            'APV100 SOLIDS' / 'APV100 INORGANIC' / 'APESV100 AP-EOS' &
         23             / 'NISTV100 NIST-TRC'
         24
         25    COMPONENTS
         26        GLYCEROL C3H8O3 /
         27        TRIOL-01 C57H104O6 /
         28        TRILI-01 C57H98O6 /
         29        METHA-01 CH4O /
         30        METHY-01 C19H36O2 /
         31        METHY-02 C19H34O2 /
         32        UREA CH4N2O /
         33        CALCI-01 CAO /
         34        LANTH-01 LA2O3 /
         35        AMMON-01 H3N /
         36        GLYCE-01 C4H6O4-N1 /
         37        NITROGEN N2 /
         38        WATER H2O
         39
         40    CISOLID-COMPS CALCI-01 LANTH-01
         41
         42    SOLVE
         43        RUN-MODE MODE=SIM
         44
         45    FLOWSHEET
         46        HIERARCHY B2
         47        CONNECT $C-1 IN=S16 OUT="B2.S4"
         48        CONNECT $C-3 IN=CAOIN OUT="B2.CATIN"
         49        CONNECT $C-2 IN="B2.S5" OUT=S5
         50        BLOCK B4 IN=S6 OUT=S8 GLYCEROL
         51        BLOCK B3 IN=S5 OUT=S6 CATOUT
         52        BLOCK B1 IN=OILS METHANOL OUT=S4
         53        BLOCK B6 IN=S2 OUT=METHOUT BIO
         54        BLOCK B9 IN=GLYCEROL OUT=METHOUT2 S11
         55        BLOCK B8 IN=S10 OUT=S13
         56        BLOCK B12 IN=S13 OUT=S15 LAOOUT
         57        BLOCK B13 IN=S15 OUT=HOTAMMO S17
         58        BLOCK B14 IN=S21 OUT=S18 GCHOT
         59        BLOCK B15 IN=S17 OUT=S21
         60        BLOCK HEATX1 IN=WATERHOT S8 OUT=WATEROUT S2
         61        BLOCK B11 IN=LAOIN UREAIN S11 GLYCRE OUT=S9
         62        BLOCK HEATX2 IN=GCHOT S9 OUT=GCHOT2 S10
         63        BLOCK B7 IN=METHOUT2 OUT=S3 S7
         64        BLOCK B17 IN=S4 S20 OUT=S1
         65        BLOCK B16 IN=S14 WATERCOO OUT=S20 WATERHOT
         66        BLOCK B19 IN=S3 OUT=S23
         67        BLOCK B10 IN=S1 OUT=S16
         68        BLOCK B18 IN=S23 METHOUT OUT=S14
         69        BLOCK B5 IN=S18 WATEROUT OUT=GLYCRE S12
         70        BLOCK B20 IN=HOTAMMO S12 OUT=COLDAMMO S19
         71        BLOCK B21 IN=GCHOT2 S19 OUT=GCPROD S24
         72        BLOCK B23 IN=BIO OUT=S25
         73        BLOCK B26 IN=S25 OUT=S26 S27
         74
         75    PROPERTIES SR-POLAR
         76        PROPERTIES IDEAL / NRTL
         77
         78    ESTIMATE ALL
         79
         80    PROP-DATA PCES-1
         81        IN-UNITS MET PRESSURE=bar TEMPERATURE=C DELTA-T=C PDROP=bar  &
         82            INVERSE-PRES='1/bar' SHORT-LENGTH=mm
         83        PROP-LIST OMEGA / DHVLB / VB / RGYR / RKTZRA / VLSTD
         84        PVAL UREA .5992461800 / 20985.95586 / 48.82570000 /  &
         85            2.6000000E-10 / .2351731880 / 48.82570000
         86        PROP-LIST RKTZRA / VLSTD
         87        PVAL CALCI-01 .2918596200 / 298.9063450
         88        PVAL GLYCE-01 .2037543860 / 69.23640000
         89
         90    PROP-DATA DHVLWT-1
         91        IN-UNITS MET PRESSURE=bar TEMPERATURE=C DELTA-T=C PDROP=bar  &
         92            INVERSE-PRES='1/bar' SHORT-LENGTH=mm
         93        PROP-LIST DHVLWT
         94        PVAL CALCI-01 5.38817025E+5 3396.850000 .3800000000 0.0  &
         95            3396.850000
         96
         97    PROP-DATA KLDIP-1
         98        IN-UNITS MET PRESSURE=bar TEMPERATURE=C DELTA-T=C PDROP=bar  &
         99            INVERSE-PRES='1/bar' SHORT-LENGTH=mm
        100        PROP-LIST KLDIP
        101        PVAL UREA .0494897448 1.57543997E-3 -1.0085909E-5  &
        102            2.44404255E-8 -2.254923E-11 191.8500000 424.8000000
        103        PVAL CALCI-01 -.6218197112 7.78300188E-4 -2.8775749E-7  &
        104            4.5627261E-11 -2.727830E-15 3396.850000 5686.650000
        105
        106    PROP-DATA MULAND-1
        107        IN-UNITS MET PRESSURE=bar TEMPERATURE=C DELTA-T=C PDROP=bar  &
        108            INVERSE-PRES='1/bar' SHORT-LENGTH=mm
        109        PROP-LIST MULAND
        110        PVAL UREA 129.3349773 -7951.576030 -18.41338230 191.8500000  &
        111            424.8000000
        112        PVAL CALCI-01 81.01615608 -12127.32210 -10.25255770  &
        113            1126.850000 1706.850000
        114
        115    PROP-DATA PLXANT-1
        116        IN-UNITS MET PRESSURE=bar TEMPERATURE=C DELTA-T=C PDROP=bar  &
        117            INVERSE-PRES='1/bar' SHORT-LENGTH=mm
        118        PROP-LIST PLXANT
        119        PVAL UREA 77.19179774 -10639.35530 0.0 0.0 -8.846083610  &
        120            3.4142003E-18 6.000000000 191.8500000 431.8500000
        121
        122    PROP-DATA SIGDIP-1
        123        IN-UNITS MET PRESSURE=bar TEMPERATURE=C DELTA-T=C PDROP=bar  &
        124            INVERSE-PRES='1/bar' SHORT-LENGTH=mm
        125        PROP-LIST SIGDIP
        126        PVAL UREA 156.7709600 1.222222220 5.9537296E-10  &
        127            -6.635066E-10 2.6632382E-10 191.8500000 417.7500000
        128        PVAL GLYCE-01 156.3532160 1.222222220 5.9089352E-10  &
        129            -6.640628E-10 2.6313812E-10 323.7990000 543.1900000
        130        PVAL CALCI-01 139.2135830 1.222222220 -2.171954E-10  &
        131            2.3955375E-10 -9.673330E-11 3396.850000 5626.450000
        132
        133    PROP-DATA HOCETA-1
        134        IN-UNITS MET PRESSURE=bar TEMPERATURE=C DELTA-T=C PDROP=bar  &
        135            INVERSE-PRES='1/bar' SHORT-LENGTH=mm
        136        PROP-LIST HOCETA
        137        BPVAL METHA-01 METHA-01 1.630000000
        138        BPVAL METHA-01 AMMON-01 .2000000000
        139        BPVAL AMMON-01 METHA-01 .2000000000
        140
        141    PROP-DATA NRTL-1
        142        IN-UNITS MET PRESSURE=bar TEMPERATURE=C DELTA-T=C PDROP=bar  &
        143            INVERSE-PRES='1/bar' SHORT-LENGTH=mm
        144        PROP-LIST NRTL
        145        BPVAL GLYCEROL METHA-01 0.0 -218.5217000 .3000000000 0.0  &
        146            0.0 0.0 25.00000000 62.50000000
        147        BPVAL METHA-01 GLYCEROL 0.0 547.8301000 .3000000000 0.0  &
        148            0.0 0.0 25.00000000 62.50000000
        149
        150    STREAM CAOIN
        151        SUBSTREAM MIXED TEMP=25. PRES=1. MOLE-FLOW=66. <mol/hr>
        152        MOLE-FRAC CALCI-01 1.
        153
        154    STREAM LAOIN
        155        SUBSTREAM MIXED TEMP=25. PRES=1. MASS-FLOW=2.
        156        MOLE-FRAC LANTH-01 1.
        157
        158    STREAM METHANOL
        159        SUBSTREAM MIXED TEMP=25. PRES=1. MOLE-FLOW=14536. <mol/hr>
        160        MOLE-FRAC METHA-01 1.
        161
        162    STREAM OILS
        163        SUBSTREAM MIXED TEMP=25. PRES=1. MOLE-FLOW=2200. <mol/hr>
        164        MOLE-FRAC TRIOL-01 0.6 / TRILI-01 0.4
        165
        166    STREAM UREAIN
        167        SUBSTREAM MIXED TEMP=25. PRES=1. MASS-FLOW=150.
        168        MOLE-FRAC UREA 1.
        169
        170    STREAM WATERCOO
        171        SUBSTREAM MIXED TEMP=25. PRES=1. MOLE-FLOW=225.
        172        MOLE-FRAC WATER 1.
        173
        174    BLOCK B1 MIXER
        175        PARAM PRES=1. NPHASE=1 PHASE=L TOL=0.01 T-EST=25.
        176        PROPERTIES IDEAL FREE-WATER=STEAM-TA SOLU-WATER=3  &
        177            TRUE-COMPS=YES
        178        BLOCK-OPTION FREE-WATER=NO
        179
        180    BLOCK B11 MIXER
        181        PARAM PRES=1.
        182
        183    BLOCK B17 MIXER
        184        PARAM PRES=1. NPHASE=1 PHASE=L
        185        PROPERTIES IDEAL FREE-WATER=STEAM-TA SOLU-WATER=3  &
        186            TRUE-COMPS=YES
        187        BLOCK-OPTION FREE-WATER=NO
        188
        189    BLOCK B18 MIXER
        190        PARAM
        191
        192    BLOCK B7 FSPLIT
        193        FRAC S3 0.99
        194
        195    BLOCK B10 HEATER
        196        PARAM TEMP=65. PRES=1. NPHASE=1 PHASE=L DPPARMOPT=NO
        197        BLOCK-OPTION FREE-WATER=NO
        198
        199    BLOCK B23 HEATER
        200        PARAM TEMP=115. PRES=1. DPPARMOPT=NO
        201
        202    BLOCK B9 FLASH2
        203        PARAM TEMP=100. PRES=0.2 MAXIT=30
        204        PROPERTIES SR-POLAR FREE-WATER=STEAM-TA SOLU-WATER=3  &
        205            TRUE-COMPS=YES
        206
        207    BLOCK B13 FLASH2
        208        PARAM PRES=0.5 DUTY=0.
        209
        210    BLOCK B26 FLASH2
        211        PARAM PRES=0.2 DUTY=0.
        212
        213    BLOCK B4 DECANTER
        214        PARAM TEMP=65. PRES=1. LL-METH=EQ-SOLVE L2-COMPS=METHA-01  &
        215            L2-CUTOFF=0.5 MAXIT=30
        216
        217    BLOCK B5 HEATX
        218        PARAM T-HOT=140. CALC-TYPE=DESIGN U-OPTION=PHASE  &
        219            F-OPTION=CONSTANT CALC-METHOD=SHORTCUT
        220        FEEDS HOT=S18 COLD=WATEROUT
        221        OUTLETS-HOT GLYCRE
        222        OUTLETS-COLD S12
        223        HOT-SIDE DP-OPTION=CONSTANT DPPARMOPT=NO
        224        COLD-SIDE DP-OPTION=CONSTANT DPPARMOPT=NO
        225        TQ-PARAM CURVE=YES
        226
        227    BLOCK B16 HEATX
        228        PARAM T-HOT=63. CALC-TYPE=DESIGN TYPE=COUNTERCURRE  &
        229            PRES-HOT=1. U-OPTION=PHASE F-OPTION=CONSTANT  &
        230            CALC-METHOD=SHORTCUT
        231        FEEDS HOT=S14 COLD=WATERCOO
        232        OUTLETS-HOT S20
        233        OUTLETS-COLD WATERHOT
        234        PROPERTIES NRTL FREE-WATER=STEAM-TA SOLU-WATER=3  &
        235            TRUE-COMPS=YES / STEAM-TA FREE-WATER=STEAM-TA  &
        236            SOLU-WATER=3 TRUE-COMPS=YES
        237        HOT-SIDE DP-OPTION=CONSTANT DPPARMOPT=NO
        238        COLD-SIDE DP-OPTION=CONSTANT DPPARMOPT=NO
        239        TQ-PARAM CURVE=YES
        240
        241    BLOCK B20 HEATX
        242        PARAM T-HOT=90. CALC-TYPE=DESIGN U-OPTION=PHASE  &
        243            F-OPTION=CONSTANT CALC-METHOD=SHORTCUT
        244        FEEDS HOT=HOTAMMO COLD=S12
        245        OUTLETS-HOT COLDAMMO
        246        OUTLETS-COLD S19
        247        HOT-SIDE DP-OPTION=CONSTANT DPPARMOPT=NO
        248        COLD-SIDE DP-OPTION=CONSTANT DPPARMOPT=NO
        249        TQ-PARAM CURVE=YES
        250
        251    BLOCK B21 HEATX
        252        PARAM T-HOT=90. CALC-TYPE=DESIGN U-OPTION=PHASE  &
        253            F-OPTION=CONSTANT CALC-METHOD=SHORTCUT
        254        FEEDS HOT=GCHOT2 COLD=S19
        255        OUTLETS-HOT GCPROD
        256        OUTLETS-COLD S24
        257        HOT-SIDE DP-OPTION=CONSTANT DPPARMOPT=NO
        258        COLD-SIDE DP-OPTION=CONSTANT DPPARMOPT=NO
        259        TQ-PARAM CURVE=YES
        260
        261    BLOCK HEATX1 HEATX
        262        PARAM T-COLD=80. CALC-TYPE=DESIGN TYPE=COUNTERCURRE  &
        263            U-OPTION=PHASE F-OPTION=CONSTANT CALC-METHOD=SHORTCUT
        264        FEEDS HOT=WATERHOT COLD=S8
        265        OUTLETS-HOT WATEROUT
        266        OUTLETS-COLD S2
        267        PROPERTIES NRTL FREE-WATER=STEAM-TA SOLU-WATER=3  &
        268            TRUE-COMPS=YES / NRTL FREE-WATER=STEAM-TA SOLU-WATER=3  &
        269            TRUE-COMPS=YES
        270        HOT-SIDE DP-OPTION=CONSTANT DPPARMOPT=NO
        271        COLD-SIDE DP-OPTION=CONSTANT DPPARMOPT=NO
        272        TQ-PARAM CURVE=YES
        273
        274    BLOCK HEATX2 HEATX
        275        PARAM T-COLD=140. CALC-TYPE=DESIGN U-OPTION=PHASE  &
        276            F-OPTION=CONSTANT CALC-METHOD=SHORTCUT
        277        FEEDS HOT=GCHOT COLD=S9
        278        OUTLETS-HOT GCHOT2
        279        OUTLETS-COLD S10
        280        HOT-SIDE DP-OPTION=CONSTANT DPPARMOPT=NO
        281        COLD-SIDE DP-OPTION=CONSTANT DPPARMOPT=NO
        282        TQ-PARAM CURVE=YES
        283
        284    BLOCK B6 RADFRAC
        285        PARAM NSTAGE=3 ALGORITHM=NONIDEAL INIT-OPTION=STANDARD  &
        286            MAXOL=200 DAMPING=NONE
        287        COL-CONFIG CONDENSER=PARTIAL-V
        288        FEEDS S2 2 ON-STAGE
        289        PRODUCTS BIO 3 L / METHOUT 1 V
        290        P-SPEC 1 1. / 2 1.
        291        COL-SPECS MASS-D:F=0.17 MASS-RR=3.
        292        PROPERTIES IDEAL FREE-WATER=STEAM-TA SOLU-WATER=3  &
        293            TRUE-COMPS=YES
        294
        295    BLOCK B14 RADFRAC
        296        PARAM NSTAGE=16 ALGORITHM=STANDARD MAXOL=25 DAMPING=NONE
        297        COL-CONFIG CONDENSER=PARTIAL-V
        298        FEEDS S21 10
        299        PRODUCTS S18 1 V / GCHOT 16 L
        300        P-SPEC 1 1.
        301        COL-SPECS MASS-D:F=0.18 MOLE-RR=3.
        302
        303    BLOCK B8 RSTOIC
        304        PARAM TEMP=140. PRES=3. <kPa>
        305        STOIC 1 MIXED GLYCEROL -1. / UREA -1. / AMMON-01 2. /  &
        306            GLYCE-01 1.
        307        CONV 1 MIXED GLYCEROL 0.85
        308
        309    HIERARCHY B2
        310
        311
        312    DEF-STREAMS CONVEN ALL
        313
        314    SOLVE
        315        PARAM METHOD=SM PROCESS=BATCH
        316        RUN-MODE MODE=SIM
        317
        318    FLOWSHEET
        319        BLOCK B1 IN=S1 OUT=S5
        320        BLOCK B2 IN=S4 CATIN OUT=S1
        321
        322    PROPERTIES SR-POLAR FREE-WATER=STEAM-TA SOLU-WATER=3  &
        323            TRUE-COMPS=YES
        324        PROPERTIES IDEAL / NRTL
        325
        326    BLOCK B2 MIXER
        327        PARAM PRES=1. NPHASE=1 PHASE=L
        328        PROPERTIES SR-POLAR FREE-WATER=STEAM-TA SOLU-WATER=3  &
        329            TRUE-COMPS=YES
        330        BLOCK-OPTION FREE-WATER=NO
        331
        332    BLOCK B1 BATCHOP
        333        PARAM TYPE=T-SPEC PRES=1. TEMP=65. NPHASE=1 PHASE=L
        334        INIT-COND FEED-TIME=1.
        335        DISCHARGE DISCHARGE-T=1.
        336        REACTIONS RXN-IDS=R-1 R-2
        337        BLOCK-OPTION FREE-WATER=NO
        338
        339    EO-CONV-OPTI
        340
        341    BATCH-OPTS
        342        PARAM MAX-TIME=6. OUTPUT-INT=0.05
        343
        344    ENDHIERARCHY B2
        345
        346    BLOCK B15 PUMP
        347        PARAM DELP=0.5
        348
        349    BLOCK B19 COMPR
        350        PARAM TYPE=ISENTROPIC DELP=0.8 NPHASE=2 SB-MAXIT=30  &
        351            SB-TOL=0.0001
        352        BLOCK-OPTION FREE-WATER=NO
        353
        354    BLOCK B3 CFUGE
        355        PARAM TYPE=SOLIDS-SEP NPHASE=2 PRES=1. DELT=0.
        356        SOLIDS-SEP SOLID-SPLIT=1. FLUID-SPLIT=1.
        357        PROPERTIES NRTL FREE-WATER=STEAM-TA SOLU-WATER=3  &
        358            TRUE-COMPS=YES
        359
        360    BLOCK B12 CFUGE
        361        PARAM TYPE=SOLIDS-SEP NPHASE=2 PRES=1.
        362        SOLIDS-SEP SOLID-SPLIT=1. FLUID-SPLIT=1.
        363
        364    EO-CONV-OPTI
        365
        366    STREAM-REPOR MOLEFLOW
        367
        368    PROPERTY-REP PCES
        369
        370    REACTIONS R-1 LHHW
        371        REAC-DATA 1
        372        RATE-CON 1 PRE-EXP=0.07 ACT-ENERGY=16.6 <kJ/mol>
        373        STOIC 1 MIXED TRIOL-01 -1. / METHA-01 -3. / METHY-01 3. / &
        374            GLYCEROL 1.
        375        DFORCE-EXP-1 1 MIXED TRIOL-01 1. / MIXED METHA-01 0. /  &
        376            MIXED METHY-01 0. / MIXED GLYCEROL 0.
        377        DFORCE-EQ-1 REACNO=1 A=0.
        378        DFORCE-EQ-2 REACNO=1 A=-52.95
        379
        380    REACTIONS R-2 LHHW
        381        REAC-DATA 1
        382        RATE-CON 1 PRE-EXP=0.07 ACT-ENERGY=16.6 <kJ/mol>
        383        STOIC 1 MIXED TRILI-01 -1. / METHA-01 -3. / GLYCEROL 1. / &
        384            METHY-02 3.
        385        DFORCE-EXP-1 1 MIXED TRILI-01 1. / MIXED METHA-01 0. /  &
        386            MIXED GLYCEROL 0. / MIXED METHY-02 0.
        387        DFORCE-EQ-1 REACNO=1 A=0.
        388        DFORCE-EQ-2 REACNO=1 A=-52.95
        389
        390    PROP-TABLE BINRY-2 PROPS
        391        IN-UNITS MET PRESSURE=bar TEMPERATURE=C DELTA-T=C PDROP=bar  &
        392            INVERSE-PRES='1/bar' SHORT-LENGTH=mm
        393        ANALYSIS ANAL-TYPE=GIBBS UNITS='cal/mol'
        394        PROPERTIES SR-POLAR FREE-WATER=STEAM-TA SOLU-WATER=3  &
        395            TRUE-COMPS=YES
        396        MOLE-FLOW GLYCEROL 1 /  METHY-01  1
        397        STATE PRES=1.
        398        VARY TEMP
        399        RANGE LIST=40.
        400        VARY MOLEFRAC COMP=GLYCEROL
        401        RANGE VARVALUE=RANGE LOWER=0.0 UPPER=1.0 NPOINT=50
        402        PARAM NPHASE=3
        403    ;
        404    ;
        405    ;
        406    ;
        407    ;
Added container block B2
 *** INPUT TRANSLATOR MESSAGES ***

  *** THIS RUN USES THE PROPERTIES ENTERPRISE DATABASE ***
      SQLLOCALDB.APESV100 : (DATAVERSION - 36.0.0.1)                          
      SQLLOCALDB.APV100 : (DATAVERSION - 36.0.0.21)                           
      SQLLOCALDB.FACTV100 : (DATAVERSION - 36.0.0.1)                          
      SQLLOCALDB.NISTV100 : (DATAVERSION - 36.0.0.15)                         

      INFORMATION IN PHYSICAL PROPERTY SYSTEM                  (PCERTE.10)      
      STRUCTURE FOR COMPONENT TRILI-01 HAS NOT BEEN DEFINED.                    
      PCES CANNOT USE GROUP-CONTRIBUTION METHODS TO ESTIMATE MISSING PROPERTIES.
      USE THE STRUCTURES PARAGRAPH TO DEFINE STRUCTURES OF THIS COMPONENT.      

      INFORMATION IN PHYSICAL PROPERTY SYSTEM                  (PCERTE.10)      
      STRUCTURE FOR COMPONENT UREA HAS NOT BEEN DEFINED.                        
      PCES CANNOT USE GROUP-CONTRIBUTION METHODS TO ESTIMATE MISSING PROPERTIES.
      USE THE STRUCTURES PARAGRAPH TO DEFINE STRUCTURES OF THIS COMPONENT.      

      INFORMATION IN PHYSICAL PROPERTY SYSTEM                  (PCERTE.10)      
      STRUCTURE FOR COMPONENT CALCI-01 HAS NOT BEEN DEFINED.                    
      PCES CANNOT USE GROUP-CONTRIBUTION METHODS TO ESTIMATE MISSING PROPERTIES.
      USE THE STRUCTURES PARAGRAPH TO DEFINE STRUCTURES OF THIS COMPONENT.      

      INFORMATION IN PHYSICAL PROPERTY SYSTEM                  (PCERTE.10)      
      STRUCTURE FOR COMPONENT LANTH-01 HAS NOT BEEN DEFINED.                    
      PCES CANNOT USE GROUP-CONTRIBUTION METHODS TO ESTIMATE MISSING PROPERTIES.
      USE THE STRUCTURES PARAGRAPH TO DEFINE STRUCTURES OF THIS COMPONENT.      

      INFORMATION IN PHYSICAL PROPERTY SYSTEM                  (PCERTE.10)      
      STRUCTURE FOR COMPONENT GLYCE-01 HAS NOT BEEN DEFINED.                    
      PCES CANNOT USE GROUP-CONTRIBUTION METHODS TO ESTIMATE MISSING PROPERTIES.
      USE THE STRUCTURES PARAGRAPH TO DEFINE STRUCTURES OF THIS COMPONENT.      

      INFORMATION IN PHYSICAL PROPERTY SYSTEM                  (LOADMW.5)       
      MW AVAILABLE FOR COMPONENT TRILI-01 IS DIFFERENT FROM MW                  
      CALCULATED FROM FORMULA (ATOMNO/NOATOM).  CALCULATED VALUE IS USED.       
      AVAILABLE MW =   879.3840     CALCULATED MW =   879.4015                  

  *   WARNING IN PHYSICAL PROPERTY SYSTEM                      (LCLIMS.4)       
      PARAMETER DHVLWT/ELEMENT  1 (DATA SET 1)                                  
      UPPER BOUND VIOLATED FOR COMPONENT CALCI-01                               
      VALUE =  0.22559E+10, UPPER BOUND =  0.60000E+09                          

  *   WARNING IN PHYSICAL PROPERTY SYSTEM                      (LCLIMS.4)       
      PARAMETER DHVLWT/ELEMENT  5 (DATA SET 1)                                  
      UPPER BOUND VIOLATED FOR COMPONENT CALCI-01                               
      VALUE =   3670.0    , UPPER BOUND =   1500.0                              

  *   WARNING WHILE CHECKING INPUT SPECIFICATIONS              (PRPCHK.1)       
      INCONSISTENT PROPERTIES DETECTED FOR 11 STREAMS                           
      (SEE CONTROL PANEL OR HISTORY FILE FOR FULL LIST)                         
      SOURCE BLOCK        PROPERTIES STREAM   DESTINATION BLOCK   PROPERTIES    
      =================== ========== ======== =================== ==========    
      B3                  NRTL       S6       B4                  SR-POLAR      
      B2.B1               SR-POLAR   S5       B3                  NRTL          
      HEATX1              NRTL       S2       B6                  IDEAL         
      B16                 STEAM-TA   WATERHOT HEATX1              NRTL          
      B4                  SR-POLAR   S8       HEATX1              NRTL          
      B16                 NRTL       S20      B17                 IDEAL         
      B18                 SR-POLAR   S14      B16                 NRTL          
      B17                 IDEAL      S1       B10                 SR-POLAR      
      B6                  IDEAL      METHOUT  B18                 SR-POLAR      
      HEATX1              NRTL       WATEROUT B5                  SR-POLAR      
      B6                  IDEAL      BIO      B23                 SR-POLAR      
 
 

 PDF updated                                                                      TIME =      7.78


 THE FOLLOWING PURE COMPONENT PARAMETERS ARE ESTIMATED FOR MODEL ESRKU:


 COMPONENT GLYCEROL
      POLAR PARAMETER RKUPP0 =    -0.065662
                      RKUPP1 =     3.433459
                      RKUPP2 =    -6.929989

 COMPONENT TRIOL-01
      POLAR PARAMETER RKUPP0 =     4.099804
                      RKUPP1 =    -3.004889
                      RKUPP2 =     2.162829

 COMPONENT TRILI-01
      POLAR PARAMETER RKUPP0 =     4.075085
                      RKUPP1 =    -3.003402
                      RKUPP2 =     2.160700

 COMPONENT METHA-01
      POLAR PARAMETER RKUPP0 =     0.162227
                      RKUPP1 =    -1.430134
                      RKUPP2 =     0.008900

 COMPONENT METHY-01
      POLAR PARAMETER RKUPP0 =    -0.028342
                      RKUPP1 =   -11.709490
                      RKUPP2 =    14.975620

 COMPONENT METHY-02
      POLAR PARAMETER RKUPP0 =     0.959016
                      RKUPP1 =    -2.964248
                      RKUPP2 =     2.123185

 COMPONENT UREA    
      POLAR PARAMETER RKUPP0 =    -0.323045
                      RKUPP1 =    -2.966432
                      RKUPP2 =     2.198500

 COMPONENT CALCI-01
      POLAR PARAMETER RKUPP0 =     0.711866
                      RKUPP1 =    -4.328770
                      RKUPP2 =    -5.480186

 COMPONENT LANTH-01
      POLAR PARAMETER RKUPP0 =     0.000000
                      RKUPP1 =     0.000000
                      RKUPP2 =     0.000000

 COMPONENT AMMON-01
      POLAR PARAMETER RKUPP0 =     0.036832
                      RKUPP1 =    -0.837919
                      RKUPP2 =    -0.809507

 COMPONENT GLYCE-01
      POLAR PARAMETER RKUPP0 =     0.000000
                      RKUPP1 =     0.000000
                      RKUPP2 =     0.000000

 COMPONENT NITROGEN
      POLAR PARAMETER RKUPP0 =     0.000000
                      RKUPP1 =     0.000000
                      RKUPP2 =     0.000000

 COMPONENT WATER   
      POLAR PARAMETER RKUPP0 =     0.065549
                      RKUPP1 =    -0.560763
                      RKUPP2 =    -1.260662

 THE FOLLOWING BINARY-INTERACTION PARAMETERS ARE ESTIMATED FOR MODEL ESRKU:


 BINARY GLYCEROL - TRIOL-01

      INTERACTION PARAMETERS NOT PREDICTED BECAUSE UNIFAC GENERATES VERY LOW OR HIGH PRESSURE DATA

 BINARY GLYCEROL - TRILI-01

      INTERACTION PARAMETERS NOT PREDICTED BECAUSE UNIFAC GROUP PARAMETERS ARE MISSING

 BINARY GLYCEROL - METHA-01
      RKUKA0 =   -0.121950    
      RKUKA2 =     23.8381    
      RKULA0 =    0.341113E-01
      RKULA2 =    -10.0315    

      FOR     298.15 (K) <= T <=    318.15 (K)


 BINARY GLYCEROL - METHY-01

      INTERACTION PARAMETERS NOT PREDICTED BECAUSE UNIFAC GENERATES VERY LOW OR HIGH PRESSURE DATA

 BINARY GLYCEROL - METHY-02

      INTERACTION PARAMETERS NOT PREDICTED BECAUSE UNIFAC GENERATES VERY LOW OR HIGH PRESSURE DATA

 BINARY GLYCEROL - UREA    

      INTERACTION PARAMETERS NOT PREDICTED BECAUSE UNIFAC GROUP PARAMETERS ARE MISSING

 BINARY GLYCEROL - CALCI-01

      INTERACTION PARAMETERS NOT PREDICTED BECAUSE UNIFAC GROUP PARAMETERS ARE MISSING

 BINARY GLYCEROL - LANTH-01

      INTERACTION PARAMETERS CANNOT BE PREDICTED USING UNIFAC

 BINARY GLYCEROL - GLYCE-01

      INTERACTION PARAMETERS NOT PREDICTED BECAUSE UNIFAC GROUP PARAMETERS ARE MISSING

 BINARY GLYCEROL - WATER   
      RKUKA0 =    0.603974E-02
      RKUKA2 =    -15.3785    
      RKULA0 =    0.789942E-02
      RKULA2 =    -2.78712    

      FOR     298.15 (K) <= T <=    318.15 (K)


 BINARY TRIOL-01 - TRILI-01

      INTERACTION PARAMETERS NOT PREDICTED BECAUSE UNIFAC GROUP PARAMETERS ARE MISSING

 BINARY TRIOL-01 - METHA-01

      INTERACTION PARAMETERS NOT PREDICTED BECAUSE UNIFAC GENERATES VERY LOW OR HIGH PRESSURE DATA

 BINARY TRIOL-01 - METHY-01

      INTERACTION PARAMETERS NOT PREDICTED BECAUSE UNIFAC GENERATES VERY LOW OR HIGH PRESSURE DATA

 BINARY TRIOL-01 - METHY-02

      INTERACTION PARAMETERS NOT PREDICTED BECAUSE UNIFAC GENERATES VERY LOW OR HIGH PRESSURE DATA

 BINARY TRIOL-01 - UREA    

      INTERACTION PARAMETERS NOT PREDICTED BECAUSE UNIFAC GROUP PARAMETERS ARE MISSING

 BINARY TRIOL-01 - CALCI-01

      INTERACTION PARAMETERS NOT PREDICTED BECAUSE UNIFAC GROUP PARAMETERS ARE MISSING

 BINARY TRIOL-01 - LANTH-01

      INTERACTION PARAMETERS NOT PREDICTED BECAUSE UNIFAC GROUP PARAMETERS ARE MISSING

 BINARY TRIOL-01 - GLYCE-01

      INTERACTION PARAMETERS NOT PREDICTED BECAUSE UNIFAC GROUP PARAMETERS ARE MISSING

 BINARY TRIOL-01 - WATER   

      INTERACTION PARAMETERS NOT PREDICTED BECAUSE UNIFAC GENERATES VERY LOW OR HIGH PRESSURE DATA

 BINARY TRILI-01 - METHA-01

      INTERACTION PARAMETERS NOT PREDICTED BECAUSE UNIFAC GROUP PARAMETERS ARE MISSING

 BINARY TRILI-01 - METHY-01

      INTERACTION PARAMETERS NOT PREDICTED BECAUSE UNIFAC GROUP PARAMETERS ARE MISSING

 BINARY TRILI-01 - METHY-02

      INTERACTION PARAMETERS NOT PREDICTED BECAUSE UNIFAC GROUP PARAMETERS ARE MISSING

 BINARY TRILI-01 - UREA    

      INTERACTION PARAMETERS NOT PREDICTED BECAUSE UNIFAC GROUP PARAMETERS ARE MISSING

 BINARY TRILI-01 - CALCI-01

      INTERACTION PARAMETERS NOT PREDICTED BECAUSE UNIFAC GROUP PARAMETERS ARE MISSING

 BINARY TRILI-01 - LANTH-01

      INTERACTION PARAMETERS NOT PREDICTED BECAUSE UNIFAC GROUP PARAMETERS ARE MISSING

 BINARY TRILI-01 - GLYCE-01

      INTERACTION PARAMETERS NOT PREDICTED BECAUSE UNIFAC GROUP PARAMETERS ARE MISSING

 BINARY TRILI-01 - WATER   

      INTERACTION PARAMETERS NOT PREDICTED BECAUSE UNIFAC GROUP PARAMETERS ARE MISSING

 BINARY METHA-01 - METHY-01
      RKUKA0 =   -0.597541E-01
      RKUKA2 =     2.71431    
      RKULA0 =   -0.139340E-01
      RKULA2 =    -11.3968    

      FOR     298.15 (K) <= T <=    318.15 (K)


 BINARY METHA-01 - METHY-02
      RKUKA0 =    0.153105E-01
      RKUKA2 =    -25.2241    
      RKULA0 =   -0.182201E-02
      RKULA2 =    -16.6520    

      FOR     298.15 (K) <= T <=    318.15 (K)


 BINARY METHA-01 - UREA    

      INTERACTION PARAMETERS NOT PREDICTED BECAUSE UNIFAC GROUP PARAMETERS ARE MISSING

 BINARY METHA-01 - CALCI-01

      INTERACTION PARAMETERS NOT PREDICTED BECAUSE UNIFAC GROUP PARAMETERS ARE MISSING

 BINARY METHA-01 - LANTH-01

      INTERACTION PARAMETERS CANNOT BE PREDICTED USING UNIFAC

 BINARY METHA-01 - GLYCE-01

      INTERACTION PARAMETERS NOT PREDICTED BECAUSE UNIFAC GROUP PARAMETERS ARE MISSING

 BINARY METHA-01 - WATER   
      RKUKA0 =   -0.553952E-01
      RKUKA2 =    -9.48761    
      RKULA0 =    0.171613E-01
      RKULA2 =    -3.75214    

      FOR     298.15 (K) <= T <=    318.15 (K)


 BINARY METHY-01 - METHY-02

      INTERACTION PARAMETERS NOT PREDICTED BECAUSE UNIFAC GENERATES VERY LOW OR HIGH PRESSURE DATA

 BINARY METHY-01 - UREA    

      INTERACTION PARAMETERS NOT PREDICTED BECAUSE UNIFAC GROUP PARAMETERS ARE MISSING

 BINARY METHY-01 - CALCI-01

      INTERACTION PARAMETERS NOT PREDICTED BECAUSE UNIFAC GROUP PARAMETERS ARE MISSING

 BINARY METHY-01 - LANTH-01

      INTERACTION PARAMETERS NOT PREDICTED BECAUSE UNIFAC GROUP PARAMETERS ARE MISSING

 BINARY METHY-01 - GLYCE-01

      INTERACTION PARAMETERS NOT PREDICTED BECAUSE UNIFAC GROUP PARAMETERS ARE MISSING

 BINARY METHY-01 - WATER   
      RKUKA0 =    0.111729    
      RKUKA2 =    -102.712    
      RKULA0 =    0.254424    
      RKULA2 =    -28.7397    

      FOR     298.15 (K) <= T <=    318.15 (K)


 BINARY METHY-02 - UREA    

      INTERACTION PARAMETERS NOT PREDICTED BECAUSE UNIFAC GROUP PARAMETERS ARE MISSING

 BINARY METHY-02 - CALCI-01

      INTERACTION PARAMETERS NOT PREDICTED BECAUSE UNIFAC GROUP PARAMETERS ARE MISSING

 BINARY METHY-02 - LANTH-01

      INTERACTION PARAMETERS NOT PREDICTED BECAUSE UNIFAC GROUP PARAMETERS ARE MISSING

 BINARY METHY-02 - GLYCE-01

      INTERACTION PARAMETERS NOT PREDICTED BECAUSE UNIFAC GROUP PARAMETERS ARE MISSING

 BINARY METHY-02 - WATER   
      RKUKA0 =   -0.292058    
      RKUKA2 =     12.7089    
      RKULA0 =    0.632576    
      RKULA2 =    -152.434    

      FOR     298.15 (K) <= T <=    318.15 (K)


 BINARY UREA     - CALCI-01

      INTERACTION PARAMETERS NOT PREDICTED BECAUSE UNIFAC GROUP PARAMETERS ARE MISSING

 BINARY UREA     - LANTH-01

      INTERACTION PARAMETERS CANNOT BE PREDICTED USING UNIFAC

 BINARY UREA     - GLYCE-01

      INTERACTION PARAMETERS NOT PREDICTED BECAUSE UNIFAC GROUP PARAMETERS ARE MISSING

 BINARY UREA     - WATER   

      INTERACTION PARAMETERS NOT PREDICTED BECAUSE UNIFAC GROUP PARAMETERS ARE MISSING

 BINARY CALCI-01 - LANTH-01

      INTERACTION PARAMETERS CANNOT BE PREDICTED USING UNIFAC

 BINARY CALCI-01 - GLYCE-01

      INTERACTION PARAMETERS NOT PREDICTED BECAUSE UNIFAC GROUP PARAMETERS ARE MISSING

 BINARY CALCI-01 - WATER   

      INTERACTION PARAMETERS NOT PREDICTED BECAUSE UNIFAC GROUP PARAMETERS ARE MISSING

 BINARY LANTH-01 - GLYCE-01

      INTERACTION PARAMETERS CANNOT BE PREDICTED USING UNIFAC

 BINARY LANTH-01 - WATER   

      INTERACTION PARAMETERS CANNOT BE PREDICTED USING UNIFAC

 BINARY GLYCE-01 - WATER   

      INTERACTION PARAMETERS NOT PREDICTED BECAUSE UNIFAC GROUP PARAMETERS ARE MISSING

 *** CALCULATION TRACE ***


 *** FLOWSHEET ANALYSIS MESSAGES ***

 FLOWSHEET CONNECTIVITY BY STREAMS       

 FLOWSHEET SECTION GLOBAL  
   STREAM     SOURCE     DEST           STREAM     SOURCE     DEST
   CAOIN      ----       $C-3           METHANOL   ----       B1      
   OILS       ----       B1             UREAIN     ----       B11     
   LAOIN      ----       B11            WATERCOO   ----       B16     
   S5         $C-2       B3             S8         B4         HEATX1  
   GLYCEROL   B4         B9             S6         B3         B4      
   CATOUT     B3         ----           S4         B1         B17     
   METHOUT    B6         B18            BIO        B6         B23     
   METHOUT2   B9         B7             S11        B9         B11     
   S13        B8         B12            S15        B12        B13     
   LAOOUT     B12        ----           HOTAMMO    B13        B20     
   S17        B13        B15            S18        B14        B5      
   GCHOT      B14        HEATX2         S21        B15        B14     
   WATEROUT   HEATX1     B5             S2         HEATX1     B6      
   S9         B11        HEATX2         GCHOT2     HEATX2     B21     
   S10        HEATX2     B8             S3         B7         B19     
   S7         B7         ----           S1         B17        B10     
   S20        B16        B17            WATERHOT   B16        HEATX1  
   S23        B19        B18            S16        B10        $C-1    
   S14        B18        B16            GLYCRE     B5         B11     
   S12        B5         B20            COLDAMMO   B20        ----    
   S19        B20        B21            GCPROD     B21        ----    
   S24        B21        ----           S25        B23        B26     
   S26        B26        ----           S27        B26        ----    

 FLOWSHEET CONNECTIVITY BY BLOCKS        

 FLOWSHEET SECTION GLOBAL  
   BLOCK        INLETS                         OUTLETS
   $C-1         S16                            S4                          
   $C-3         CAOIN                          CATIN                       
   $C-2         S5                             S5                          
   B4           S6                             S8 GLYCEROL                 
   B3           S5                             S6 CATOUT                   
   B1           OILS METHANOL                  S4                          
   B6           S2                             METHOUT BIO                 
   B9           GLYCEROL                       METHOUT2 S11                
   B8           S10                            S13                         
   B12          S13                            S15 LAOOUT                  
   B13          S15                            HOTAMMO S17                 
   B14          S21                            S18 GCHOT                   
   B15          S17                            S21                         
   HEATX1       WATERHOT S8                    WATEROUT S2                 
   B11          LAOIN UREAIN S11 GLYCRE        S9                          
   HEATX2       GCHOT S9                       GCHOT2 S10                  
   B7           METHOUT2                       S3 S7                       
   B17          S4 S20                         S1                          
   B16          S14 WATERCOO                   S20 WATERHOT                
   B19          S3                             S23                         
   B10          S1                             S16                         
   B18          S23 METHOUT                    S14                         
   B5           S18 WATEROUT                   GLYCRE S12                  
   B20          HOTAMMO S12                    COLDAMMO S19                
   B21          GCHOT2 S19                     GCPROD S24                  
   B23          BIO                            S25                         
   B26          S25                            S26 S27                     

      BATCH CONVERGENCE BLOCK $BASVR01 HAS BEEN DEFINED

      BLOCK $OLVER02 (METHOD: WEGSTEIN) HAS BEEN DEFINED TO CONVERGE
               STREAMS: S14

      BLOCK $OLVER03 (METHOD: WEGSTEIN) HAS BEEN DEFINED TO CONVERGE
               STREAMS: S10

      COMPUTATION ORDER FOR THE FLOWSHEET IS:
      B1 $C-3 
      $OLVER02 B16 B17 B10 $C-1 
      |  B2.$BASVR01 B2.B2 B2.B1 
      |  (RETURN B2.$BASVR01) 
      |  $C-2 B3 B4 HEATX1 B6 B9 B7 B19 B18 
      (RETURN $OLVER02) 
      B23 B26 
      $OLVER03 B8 B12 B13 B15 B14 B5 B11 HEATX2 
      (RETURN $OLVER03) 
      B20 B21 

Calculations begin                                                              time      0.76


 SIMULATION CALCULATIONS BEGIN                                                    TIME =      0.76

      ENTHALPY CALCULATION FOR INLET STREAM OILS OF BLOCK B1                      TIME =      0.76
      KODE = 2  NTRIAL =   3  T = 298.1500  P =  100000.      V =  0.00000      Q =  0.00000    

      ENTHALPY CALCULATION FOR INLET STREAM METHANOL OF BLOCK B1                  TIME =      0.76
      KODE = 2  NTRIAL =   1  T = 298.1500  P =  100000.      V =  0.00000      Q =  0.00000    

      UOS BLOCK B1       MODEL: MIXER                                             TIME =      0.76
      KODE = 1   NO. TEMP ITER =    1     TEMP =  298.150    
      KPHASE =    2 KODE =    1 T =  298.150     P =  100000.     Q =  0.00000    

      ENTHALPY CALCULATION FOR INLET STREAM CAOIN OF BLOCK $C-3                   TIME =      0.76
      KODE = 2   NO. TEMP ITER =    1     TEMP =  298.150    
      KPHASE =    3 KODE =    2 T =  298.150     P =  100000.     Q =  0.00000    

      UOS BLOCK $C-3     MODEL: DUPL                                              TIME =      0.76

      CONVERGENCE BLOCK $OLVER02  METHOD: WEGSTEIN                                TIME =      0.77
      ITER   0 For Tear Streams: S14

      ENTHALPY CALCULATION FOR INLET STREAM WATERCOO OF BLOCK B16                 TIME =      0.77
      KODE = 2  NTRIAL =   1  T = 298.1500  P =  100000.      V =  0.00000      Q =  0.00000    

      UOS BLOCK B16      MODEL: HEATX                                             TIME =      0.77

  *   WARNING WHILE EXECUTING UNIT OPERATIONS BLOCK: "B16" (MODEL: "HEATX")     
                                                               (UHE02I.1)       
      AT LEAST ONE FEED HAS ZERO FLOW                                           
      BLOCK BYPASSED                                                            

      UOS BLOCK B17      MODEL: MIXER                                             TIME =      0.77
      KODE = 1   NO. TEMP ITER =    4     TEMP =  298.150    
      KPHASE =    2 KODE =    1 T =  298.150     P =  100000.     Q =  0.00000    

      UOS BLOCK B10      MODEL: HEATER                                            TIME =      0.77
      KODE = 2   NO. TEMP ITER =    1     TEMP =  338.150    
      KPHASE =    2 KODE =    2 T =  338.150     P =  100000.     Q =  270229.    

      UOS BLOCK $C-1     MODEL: DUPL                                              TIME =      0.77

      Batch Convergence Block $BASVR01 Hierarchy: B2                              TIME =      0.77

  *   WARNING WHILE EXECUTING BATCH CONVERGENC BLOCK: "$BASVR01" IN "B2"        
                                                               (WRTVARIN.1)     
      No active unit procedure is detected. The simulation will run to          
      the maximum integration time of 6.000 HR                                  

      Start task machine for batch B2.$BASVR01
         # Tasks =    0 NVTEAR =    0 NVTASK =    0 NVVARG =    0

      UOS BLOCK B2       MODEL: MIXER        HIERARCHY: B2                        TIME =      2.25
      KODE = 1   NO. TEMP ITER =    5     TEMP =  338.092    
      KPHASE =    2 KODE =    1 T =  338.092     P =  100000.     Q =  0.00000    

      UOS BLOCK B1       MODEL: BATCHOP      HIERARCHY: B2                        TIME =      2.26

      UOS BLOCK B1       MODEL: BATCHOP      HIERARCHY: B2                        TIME =      2.26
      STREAM B2.S5 WILL BE FLASHED FOR PROPERTY CALCULATIONS.
      KODE = 2   NO. TEMP ITER =    1     TEMP =  338.092    
      KPHASE =    2 KODE =    2 T =  338.092     P =  100000.     Q =-1.551734E-08

      UOS BLOCK B1       MODEL: BATCHOP      HIERARCHY: B2                        TIME =      2.41

      Integrating from  0.0000     to 0.10000E-01 by 0.10000E-01 HR

      UOS BLOCK B2       MODEL: MIXER        HIERARCHY: B2                        TIME =      2.45
      KODE = 1   NO. TEMP ITER =    1     TEMP =  338.092    
      KPHASE =    2 KODE =    1 T =  338.092     P =  100000.     Q =  0.00000    

      UOS BLOCK B1       MODEL: BATCHOP      HIERARCHY: B2                        TIME =      2.45

      UOS BLOCK B1       MODEL: BATCHOP      HIERARCHY: B2                        TIME =      2.46

      Integrating from 0.10000E-01 to 0.20000E-01 by 0.10000E-01 HR

      UOS BLOCK B2       MODEL: MIXER        HIERARCHY: B2                        TIME =      2.46
      KODE = 1   NO. TEMP ITER =    1     TEMP =  338.092    
      KPHASE =    2 KODE =    1 T =  338.092     P =  100000.     Q =  0.00000    

      UOS BLOCK B1       MODEL: BATCHOP      HIERARCHY: B2                        TIME =      2.47

      UOS BLOCK B1       MODEL: BATCHOP      HIERARCHY: B2                        TIME =      2.47

      Integrating from 0.20000E-01 to 0.30000E-01 by 0.10000E-01 HR

      UOS BLOCK B2       MODEL: MIXER        HIERARCHY: B2                        TIME =      2.47
      KODE = 1   NO. TEMP ITER =    1     TEMP =  338.092    
      KPHASE =    2 KODE =    1 T =  338.092     P =  100000.     Q =  0.00000    

      UOS BLOCK B1       MODEL: BATCHOP      HIERARCHY: B2                        TIME =      2.47

      UOS BLOCK B1       MODEL: BATCHOP      HIERARCHY: B2                        TIME =      2.47

      Integrating from 0.30000E-01 to 0.40000E-01 by 0.10000E-01 HR

      UOS BLOCK B2       MODEL: MIXER        HIERARCHY: B2                        TIME =      2.47
      KODE = 1   NO. TEMP ITER =    1     TEMP =  338.092    
      KPHASE =    2 KODE =    1 T =  338.092     P =  100000.     Q =  0.00000    

      UOS BLOCK B1       MODEL: BATCHOP      HIERARCHY: B2                        TIME =      2.47

      UOS BLOCK B1       MODEL: BATCHOP      HIERARCHY: B2                        TIME =      2.47

      Integrating from 0.40000E-01 to 0.50000E-01 by 0.10000E-01 HR

      UOS BLOCK B2       MODEL: MIXER        HIERARCHY: B2                        TIME =      2.47
      KODE = 1   NO. TEMP ITER =    1     TEMP =  338.092    
      KPHASE =    2 KODE =    1 T =  338.092     P =  100000.     Q =  0.00000    

      UOS BLOCK B1       MODEL: BATCHOP      HIERARCHY: B2                        TIME =      2.47

      UOS BLOCK B1       MODEL: BATCHOP      HIERARCHY: B2                        TIME =      2.56

      Integrating from 0.50000E-01 to 0.60000E-01 by 0.10000E-01 HR

      UOS BLOCK B2       MODEL: MIXER        HIERARCHY: B2                        TIME =      2.66
      KODE = 1   NO. TEMP ITER =    1     TEMP =  338.092    
      KPHASE =    2 KODE =    1 T =  338.092     P =  100000.     Q =  0.00000    

      UOS BLOCK B1       MODEL: BATCHOP      HIERARCHY: B2                        TIME =      2.66

      UOS BLOCK B1       MODEL: BATCHOP      HIERARCHY: B2                        TIME =      2.67

      Integrating from 0.60000E-01 to 0.70000E-01 by 0.10000E-01 HR

      UOS BLOCK B2       MODEL: MIXER        HIERARCHY: B2                        TIME =      2.67
      KODE = 1   NO. TEMP ITER =    1     TEMP =  338.092    
      KPHASE =    2 KODE =    1 T =  338.092     P =  100000.     Q =  0.00000    

      UOS BLOCK B1       MODEL: BATCHOP      HIERARCHY: B2                        TIME =      2.67

      UOS BLOCK B1       MODEL: BATCHOP      HIERARCHY: B2                        TIME =      2.67

      Integrating from 0.70000E-01 to 0.80000E-01 by 0.10000E-01 HR

      UOS BLOCK B2       MODEL: MIXER        HIERARCHY: B2                        TIME =      2.67
      KODE = 1   NO. TEMP ITER =    1     TEMP =  338.092    
      KPHASE =    2 KODE =    1 T =  338.092     P =  100000.     Q =  0.00000    

      UOS BLOCK B1       MODEL: BATCHOP      HIERARCHY: B2                        TIME =      2.67

      UOS BLOCK B1       MODEL: BATCHOP      HIERARCHY: B2                        TIME =      2.67

      Integrating from 0.80000E-01 to 0.90000E-01 by 0.10000E-01 HR

      UOS BLOCK B2       MODEL: MIXER        HIERARCHY: B2                        TIME =      2.67
      KODE = 1   NO. TEMP ITER =    1     TEMP =  338.092    
      KPHASE =    2 KODE =    1 T =  338.092     P =  100000.     Q =  0.00000    

      UOS BLOCK B1       MODEL: BATCHOP      HIERARCHY: B2                        TIME =      2.67

      UOS BLOCK B1       MODEL: BATCHOP      HIERARCHY: B2                        TIME =      2.67

      Integrating from 0.90000E-01 to 0.10000     by 0.10000E-01 HR

      UOS BLOCK B2       MODEL: MIXER        HIERARCHY: B2                        TIME =      2.67
      KODE = 1   NO. TEMP ITER =    1     TEMP =  338.092    
      KPHASE =    2 KODE =    1 T =  338.092     P =  100000.     Q =  0.00000    

      UOS BLOCK B1       MODEL: BATCHOP      HIERARCHY: B2                        TIME =      2.67

      UOS BLOCK B1       MODEL: BATCHOP      HIERARCHY: B2                        TIME =      2.80

      Integrating from 0.10000     to 0.11000     by 0.10000E-01 HR

      UOS BLOCK B2       MODEL: MIXER        HIERARCHY: B2                        TIME =      2.86
      KODE = 1   NO. TEMP ITER =    1     TEMP =  338.092    
      KPHASE =    2 KODE =    1 T =  338.092     P =  100000.     Q =  0.00000    

      UOS BLOCK B1       MODEL: BATCHOP      HIERARCHY: B2                        TIME =      2.86

      UOS BLOCK B1       MODEL: BATCHOP      HIERARCHY: B2                        TIME =      2.86

      Integrating from 0.11000     to 0.12000     by 0.10000E-01 HR

      UOS BLOCK B2       MODEL: MIXER        HIERARCHY: B2                        TIME =      2.86
      KODE = 1   NO. TEMP ITER =    1     TEMP =  338.092    
      KPHASE =    2 KODE =    1 T =  338.092     P =  100000.     Q =  0.00000    

      UOS BLOCK B1       MODEL: BATCHOP      HIERARCHY: B2                        TIME =      2.86

      UOS BLOCK B1       MODEL: BATCHOP      HIERARCHY: B2                        TIME =      2.86

      Integrating from 0.12000     to 0.13000     by 0.10000E-01 HR

      UOS BLOCK B2       MODEL: MIXER        HIERARCHY: B2                        TIME =      2.86
      KODE = 1   NO. TEMP ITER =    1     TEMP =  338.092    
      KPHASE =    2 KODE =    1 T =  338.092     P =  100000.     Q =  0.00000    

      UOS BLOCK B1       MODEL: BATCHOP      HIERARCHY: B2                        TIME =      2.86

      UOS BLOCK B1       MODEL: BATCHOP      HIERARCHY: B2                        TIME =      2.86

      Integrating from 0.13000     to 0.14000     by 0.10000E-01 HR

      UOS BLOCK B2       MODEL: MIXER        HIERARCHY: B2                        TIME =      2.86
      KODE = 1   NO. TEMP ITER =    1     TEMP =  338.092    
      KPHASE =    2 KODE =    1 T =  338.092     P =  100000.     Q =  0.00000    

      UOS BLOCK B1       MODEL: BATCHOP      HIERARCHY: B2                        TIME =      2.86

      UOS BLOCK B1       MODEL: BATCHOP      HIERARCHY: B2                        TIME =      2.87

      Integrating from 0.14000     to 0.15000     by 0.10000E-01 HR

      UOS BLOCK B2       MODEL: MIXER        HIERARCHY: B2                        TIME =      2.87
      KODE = 1   NO. TEMP ITER =    1     TEMP =  338.092    
      KPHASE =    2 KODE =    1 T =  338.092     P =  100000.     Q =  0.00000    

      UOS BLOCK B1       MODEL: BATCHOP      HIERARCHY: B2                        TIME =      2.87

      UOS BLOCK B1       MODEL: BATCHOP      HIERARCHY: B2                        TIME =      2.96

      Integrating from 0.15000     to 0.16000     by 0.10000E-01 HR

      UOS BLOCK B2       MODEL: MIXER        HIERARCHY: B2                        TIME =      3.01
      KODE = 1   NO. TEMP ITER =    1     TEMP =  338.092    
      KPHASE =    2 KODE =    1 T =  338.092     P =  100000.     Q =  0.00000    

      UOS BLOCK B1       MODEL: BATCHOP      HIERARCHY: B2                        TIME =      3.01

      UOS BLOCK B1       MODEL: BATCHOP      HIERARCHY: B2                        TIME =      3.01

      Integrating from 0.16000     to 0.17000     by 0.10000E-01 HR

      UOS BLOCK B2       MODEL: MIXER        HIERARCHY: B2                        TIME =      3.01
      KODE = 1   NO. TEMP ITER =    1     TEMP =  338.092    
      KPHASE =    2 KODE =    1 T =  338.092     P =  100000.     Q =  0.00000    

      UOS BLOCK B1       MODEL: BATCHOP      HIERARCHY: B2                        TIME =      3.01

      UOS BLOCK B1       MODEL: BATCHOP      HIERARCHY: B2                        TIME =      3.01

      Integrating from 0.17000     to 0.18000     by 0.10000E-01 HR

      UOS BLOCK B2       MODEL: MIXER        HIERARCHY: B2                        TIME =      3.01
      KODE = 1   NO. TEMP ITER =    1     TEMP =  338.092    
      KPHASE =    2 KODE =    1 T =  338.092     P =  100000.     Q =  0.00000    

      UOS BLOCK B1       MODEL: BATCHOP      HIERARCHY: B2                        TIME =      3.01

      UOS BLOCK B1       MODEL: BATCHOP      HIERARCHY: B2                        TIME =      3.01

      Integrating from 0.18000     to 0.19000     by 0.10000E-01 HR

      UOS BLOCK B2       MODEL: MIXER        HIERARCHY: B2                        TIME =      3.01
      KODE = 1   NO. TEMP ITER =    1     TEMP =  338.092    
      KPHASE =    2 KODE =    1 T =  338.092     P =  100000.     Q =  0.00000    

      UOS BLOCK B1       MODEL: BATCHOP      HIERARCHY: B2                        TIME =      3.01

      UOS BLOCK B1       MODEL: BATCHOP      HIERARCHY: B2                        TIME =      3.02

      Integrating from 0.19000     to 0.20000     by 0.10000E-01 HR

      UOS BLOCK B2       MODEL: MIXER        HIERARCHY: B2                        TIME =      3.02
      KODE = 1   NO. TEMP ITER =    1     TEMP =  338.092    
      KPHASE =    2 KODE =    1 T =  338.092     P =  100000.     Q =  0.00000    

      UOS BLOCK B1       MODEL: BATCHOP      HIERARCHY: B2                        TIME =      3.02

      UOS BLOCK B1       MODEL: BATCHOP      HIERARCHY: B2                        TIME =      3.10

      Integrating from 0.20000     to 0.21000     by 0.10000E-01 HR

      UOS BLOCK B2       MODEL: MIXER        HIERARCHY: B2                        TIME =      3.15
      KODE = 1   NO. TEMP ITER =    1     TEMP =  338.092    
      KPHASE =    2 KODE =    1 T =  338.092     P =  100000.     Q =  0.00000    

      UOS BLOCK B1       MODEL: BATCHOP      HIERARCHY: B2                        TIME =      3.15

      UOS BLOCK B1       MODEL: BATCHOP      HIERARCHY: B2                        TIME =      3.15

      Integrating from 0.21000     to 0.22000     by 0.10000E-01 HR

      UOS BLOCK B2       MODEL: MIXER        HIERARCHY: B2                        TIME =      3.15
      KODE = 1   NO. TEMP ITER =    1     TEMP =  338.092    
      KPHASE =    2 KODE =    1 T =  338.092     P =  100000.     Q =  0.00000    

      UOS BLOCK B1       MODEL: BATCHOP      HIERARCHY: B2                        TIME =      3.15

      UOS BLOCK B1       MODEL: BATCHOP      HIERARCHY: B2                        TIME =      3.15

      Integrating from 0.22000     to 0.23000     by 0.10000E-01 HR

      UOS BLOCK B2       MODEL: MIXER        HIERARCHY: B2                        TIME =      3.15
      KODE = 1   NO. TEMP ITER =    1     TEMP =  338.092    
      KPHASE =    2 KODE =    1 T =  338.092     P =  100000.     Q =  0.00000    

      UOS BLOCK B1       MODEL: BATCHOP      HIERARCHY: B2                        TIME =      3.15

      UOS BLOCK B1       MODEL: BATCHOP      HIERARCHY: B2                        TIME =      3.16

      Integrating from 0.23000     to 0.24000     by 0.10000E-01 HR

      UOS BLOCK B2       MODEL: MIXER        HIERARCHY: B2                        TIME =      3.16
      KODE = 1   NO. TEMP ITER =    1     TEMP =  338.092    
      KPHASE =    2 KODE =    1 T =  338.092     P =  100000.     Q =  0.00000    

      UOS BLOCK B1       MODEL: BATCHOP      HIERARCHY: B2                        TIME =      3.16

      UOS BLOCK B1       MODEL: BATCHOP      HIERARCHY: B2                        TIME =      3.16

      Integrating from 0.24000     to 0.25000     by 0.10000E-01 HR

      UOS BLOCK B2       MODEL: MIXER        HIERARCHY: B2                        TIME =      3.16
      KODE = 1   NO. TEMP ITER =    1     TEMP =  338.092    
      KPHASE =    2 KODE =    1 T =  338.092     P =  100000.     Q =  0.00000    

      UOS BLOCK B1       MODEL: BATCHOP      HIERARCHY: B2                        TIME =      3.16

      UOS BLOCK B1       MODEL: BATCHOP      HIERARCHY: B2                        TIME =      3.25

      Integrating from 0.25000     to 0.26000     by 0.10000E-01 HR

      UOS BLOCK B2       MODEL: MIXER        HIERARCHY: B2                        TIME =      3.31
      KODE = 1   NO. TEMP ITER =    1     TEMP =  338.092    
      KPHASE =    2 KODE =    1 T =  338.092     P =  100000.     Q =  0.00000    

      UOS BLOCK B1       MODEL: BATCHOP      HIERARCHY: B2                        TIME =      3.31

      UOS BLOCK B1       MODEL: BATCHOP      HIERARCHY: B2                        TIME =      3.31

      Integrating from 0.26000     to 0.27000     by 0.10000E-01 HR

      UOS BLOCK B2       MODEL: MIXER        HIERARCHY: B2                        TIME =      3.31
      KODE = 1   NO. TEMP ITER =    1     TEMP =  338.092    
      KPHASE =    2 KODE =    1 T =  338.092     P =  100000.     Q =  0.00000    

      UOS BLOCK B1       MODEL: BATCHOP      HIERARCHY: B2                        TIME =      3.31

      UOS BLOCK B1       MODEL: BATCHOP      HIERARCHY: B2                        TIME =      3.31

      Integrating from 0.27000     to 0.28000     by 0.10000E-01 HR

      UOS BLOCK B2       MODEL: MIXER        HIERARCHY: B2                        TIME =      3.31
      KODE = 1   NO. TEMP ITER =    1     TEMP =  338.092    
      KPHASE =    2 KODE =    1 T =  338.092     P =  100000.     Q =  0.00000    

      UOS BLOCK B1       MODEL: BATCHOP      HIERARCHY: B2                        TIME =      3.31

      UOS BLOCK B1       MODEL: BATCHOP      HIERARCHY: B2                        TIME =      3.31

      Integrating from 0.28000     to 0.29000     by 0.10000E-01 HR

      UOS BLOCK B2       MODEL: MIXER        HIERARCHY: B2                        TIME =      3.31
      KODE = 1   NO. TEMP ITER =    1     TEMP =  338.092    
      KPHASE =    2 KODE =    1 T =  338.092     P =  100000.     Q =  0.00000    

      UOS BLOCK B1       MODEL: BATCHOP      HIERARCHY: B2                        TIME =      3.32

      UOS BLOCK B1       MODEL: BATCHOP      HIERARCHY: B2                        TIME =      3.32

      Integrating from 0.29000     to 0.30000     by 0.10000E-01 HR

      UOS BLOCK B2       MODEL: MIXER        HIERARCHY: B2                        TIME =      3.32
      KODE = 1   NO. TEMP ITER =    1     TEMP =  338.092    
      KPHASE =    2 KODE =    1 T =  338.092     P =  100000.     Q =  0.00000    

      UOS BLOCK B1       MODEL: BATCHOP      HIERARCHY: B2                        TIME =      3.32

      UOS BLOCK B1       MODEL: BATCHOP      HIERARCHY: B2                        TIME =      3.39

      Integrating from 0.30000     to 0.31000     by 0.10000E-01 HR

      UOS BLOCK B2       MODEL: MIXER        HIERARCHY: B2                        TIME =      3.46
      KODE = 1   NO. TEMP ITER =    1     TEMP =  338.092    
      KPHASE =    2 KODE =    1 T =  338.092     P =  100000.     Q =  0.00000    

      UOS BLOCK B1       MODEL: BATCHOP      HIERARCHY: B2                        TIME =      3.46

      UOS BLOCK B1       MODEL: BATCHOP      HIERARCHY: B2                        TIME =      3.46

      Integrating from 0.31000     to 0.32000     by 0.10000E-01 HR

      UOS BLOCK B2       MODEL: MIXER        HIERARCHY: B2                        TIME =      3.46
      KODE = 1   NO. TEMP ITER =    1     TEMP =  338.092    
      KPHASE =    2 KODE =    1 T =  338.092     P =  100000.     Q =  0.00000    

      UOS BLOCK B1       MODEL: BATCHOP      HIERARCHY: B2                        TIME =      3.46

      UOS BLOCK B1       MODEL: BATCHOP      HIERARCHY: B2                        TIME =      3.46

      Integrating from 0.32000     to 0.33000     by 0.10000E-01 HR

      UOS BLOCK B2       MODEL: MIXER        HIERARCHY: B2                        TIME =      3.46
      KODE = 1   NO. TEMP ITER =    1     TEMP =  338.092    
      KPHASE =    2 KODE =    1 T =  338.092     P =  100000.     Q =  0.00000    

      UOS BLOCK B1       MODEL: BATCHOP      HIERARCHY: B2                        TIME =      3.46

      UOS BLOCK B1       MODEL: BATCHOP      HIERARCHY: B2                        TIME =      3.46

      Integrating from 0.33000     to 0.34000     by 0.10000E-01 HR

      UOS BLOCK B2       MODEL: MIXER        HIERARCHY: B2                        TIME =      3.47
      KODE = 1   NO. TEMP ITER =    1     TEMP =  338.092    
      KPHASE =    2 KODE =    1 T =  338.092     P =  100000.     Q =  0.00000    

      UOS BLOCK B1       MODEL: BATCHOP      HIERARCHY: B2                        TIME =      3.47

      UOS BLOCK B1       MODEL: BATCHOP      HIERARCHY: B2                        TIME =      3.47

      Integrating from 0.34000     to 0.35000     by 0.10000E-01 HR

      UOS BLOCK B2       MODEL: MIXER        HIERARCHY: B2                        TIME =      3.47
      KODE = 1   NO. TEMP ITER =    1     TEMP =  338.092    
      KPHASE =    2 KODE =    1 T =  338.092     P =  100000.     Q =  0.00000    

      UOS BLOCK B1       MODEL: BATCHOP      HIERARCHY: B2                        TIME =      3.47

      UOS BLOCK B1       MODEL: BATCHOP      HIERARCHY: B2                        TIME =      3.54

      Integrating from 0.35000     to 0.36000     by 0.10000E-01 HR

      UOS BLOCK B2       MODEL: MIXER        HIERARCHY: B2                        TIME =      3.58
      KODE = 1   NO. TEMP ITER =    1     TEMP =  338.092    
      KPHASE =    2 KODE =    1 T =  338.092     P =  100000.     Q =  0.00000    

      UOS BLOCK B1       MODEL: BATCHOP      HIERARCHY: B2                        TIME =      3.58

      UOS BLOCK B1       MODEL: BATCHOP      HIERARCHY: B2                        TIME =      3.58

      Integrating from 0.36000     to 0.37000     by 0.10000E-01 HR

      UOS BLOCK B2       MODEL: MIXER        HIERARCHY: B2                        TIME =      3.58
      KODE = 1   NO. TEMP ITER =    1     TEMP =  338.092    
      KPHASE =    2 KODE =    1 T =  338.092     P =  100000.     Q =  0.00000    

      UOS BLOCK B1       MODEL: BATCHOP      HIERARCHY: B2                        TIME =      3.58

      UOS BLOCK B1       MODEL: BATCHOP      HIERARCHY: B2                        TIME =      3.59

      Integrating from 0.37000     to 0.38000     by 0.10000E-01 HR

      UOS BLOCK B2       MODEL: MIXER        HIERARCHY: B2                        TIME =      3.59
      KODE = 1   NO. TEMP ITER =    1     TEMP =  338.092    
      KPHASE =    2 KODE =    1 T =  338.092     P =  100000.     Q =  0.00000    

      UOS BLOCK B1       MODEL: BATCHOP      HIERARCHY: B2                        TIME =      3.59

      UOS BLOCK B1       MODEL: BATCHOP      HIERARCHY: B2                        TIME =      3.59

      Integrating from 0.38000     to 0.39000     by 0.10000E-01 HR

      UOS BLOCK B2       MODEL: MIXER        HIERARCHY: B2                        TIME =      3.59
      KODE = 1   NO. TEMP ITER =    1     TEMP =  338.092    
      KPHASE =    2 KODE =    1 T =  338.092     P =  100000.     Q =  0.00000    

      UOS BLOCK B1       MODEL: BATCHOP      HIERARCHY: B2                        TIME =      3.59

      UOS BLOCK B1       MODEL: BATCHOP      HIERARCHY: B2                        TIME =      3.59

      Integrating from 0.39000     to 0.40000     by 0.10000E-01 HR

      UOS BLOCK B2       MODEL: MIXER        HIERARCHY: B2                        TIME =      3.59
      KODE = 1   NO. TEMP ITER =    1     TEMP =  338.092    
      KPHASE =    2 KODE =    1 T =  338.092     P =  100000.     Q =  0.00000    

      UOS BLOCK B1       MODEL: BATCHOP      HIERARCHY: B2                        TIME =      3.59

      UOS BLOCK B1       MODEL: BATCHOP      HIERARCHY: B2                        TIME =      3.69

      Integrating from 0.40000     to 0.41000     by 0.10000E-01 HR

      UOS BLOCK B2       MODEL: MIXER        HIERARCHY: B2                        TIME =      3.75
      KODE = 1   NO. TEMP ITER =    1     TEMP =  338.092    
      KPHASE =    2 KODE =    1 T =  338.092     P =  100000.     Q =  0.00000    

      UOS BLOCK B1       MODEL: BATCHOP      HIERARCHY: B2                        TIME =      3.75

      UOS BLOCK B1       MODEL: BATCHOP      HIERARCHY: B2                        TIME =      3.75

      Integrating from 0.41000     to 0.42000     by 0.10000E-01 HR

      UOS BLOCK B2       MODEL: MIXER        HIERARCHY: B2                        TIME =      3.75
      KODE = 1   NO. TEMP ITER =    1     TEMP =  338.092    
      KPHASE =    2 KODE =    1 T =  338.092     P =  100000.     Q =  0.00000    

      UOS BLOCK B1       MODEL: BATCHOP      HIERARCHY: B2                        TIME =      3.75

      UOS BLOCK B1       MODEL: BATCHOP      HIERARCHY: B2                        TIME =      3.75

      Integrating from 0.42000     to 0.43000     by 0.10000E-01 HR

      UOS BLOCK B2       MODEL: MIXER        HIERARCHY: B2                        TIME =      3.75
      KODE = 1   NO. TEMP ITER =    1     TEMP =  338.092    
      KPHASE =    2 KODE =    1 T =  338.092     P =  100000.     Q =  0.00000    

      UOS BLOCK B1       MODEL: BATCHOP      HIERARCHY: B2                        TIME =      3.75

      UOS BLOCK B1       MODEL: BATCHOP      HIERARCHY: B2                        TIME =      3.75

      Integrating from 0.43000     to 0.44000     by 0.10000E-01 HR

      UOS BLOCK B2       MODEL: MIXER        HIERARCHY: B2                        TIME =      3.75
      KODE = 1   NO. TEMP ITER =    1     TEMP =  338.092    
      KPHASE =    2 KODE =    1 T =  338.092     P =  100000.     Q =  0.00000    

      UOS BLOCK B1       MODEL: BATCHOP      HIERARCHY: B2                        TIME =      3.75

      UOS BLOCK B1       MODEL: BATCHOP      HIERARCHY: B2                        TIME =      3.76

      Integrating from 0.44000     to 0.45000     by 0.10000E-01 HR

      UOS BLOCK B2       MODEL: MIXER        HIERARCHY: B2                        TIME =      3.76
      KODE = 1   NO. TEMP ITER =    1     TEMP =  338.092    
      KPHASE =    2 KODE =    1 T =  338.092     P =  100000.     Q =  0.00000    

      UOS BLOCK B1       MODEL: BATCHOP      HIERARCHY: B2                        TIME =      3.76

      UOS BLOCK B1       MODEL: BATCHOP      HIERARCHY: B2                        TIME =      3.83

      Integrating from 0.45000     to 0.46000     by 0.10000E-01 HR

      UOS BLOCK B2       MODEL: MIXER        HIERARCHY: B2                        TIME =      3.89
      KODE = 1   NO. TEMP ITER =    1     TEMP =  338.092    
      KPHASE =    2 KODE =    1 T =  338.092     P =  100000.     Q =  0.00000    

      UOS BLOCK B1       MODEL: BATCHOP      HIERARCHY: B2                        TIME =      3.89

      UOS BLOCK B1       MODEL: BATCHOP      HIERARCHY: B2                        TIME =      3.89

      Integrating from 0.46000     to 0.47000     by 0.10000E-01 HR

      UOS BLOCK B2       MODEL: MIXER        HIERARCHY: B2                        TIME =      3.89
      KODE = 1   NO. TEMP ITER =    1     TEMP =  338.092    
      KPHASE =    2 KODE =    1 T =  338.092     P =  100000.     Q =  0.00000    

      UOS BLOCK B1       MODEL: BATCHOP      HIERARCHY: B2                        TIME =      3.89

      UOS BLOCK B1       MODEL: BATCHOP      HIERARCHY: B2                        TIME =      3.89

      Integrating from 0.47000     to 0.48000     by 0.10000E-01 HR

      UOS BLOCK B2       MODEL: MIXER        HIERARCHY: B2                        TIME =      3.89
      KODE = 1   NO. TEMP ITER =    1     TEMP =  338.092    
      KPHASE =    2 KODE =    1 T =  338.092     P =  100000.     Q =  0.00000    

      UOS BLOCK B1       MODEL: BATCHOP      HIERARCHY: B2                        TIME =      3.89

      UOS BLOCK B1       MODEL: BATCHOP      HIERARCHY: B2                        TIME =      3.89

      Integrating from 0.48000     to 0.49000     by 0.10000E-01 HR

      UOS BLOCK B2       MODEL: MIXER        HIERARCHY: B2                        TIME =      3.89
      KODE = 1   NO. TEMP ITER =    1     TEMP =  338.092    
      KPHASE =    2 KODE =    1 T =  338.092     P =  100000.     Q =  0.00000    

      UOS BLOCK B1       MODEL: BATCHOP      HIERARCHY: B2                        TIME =      3.89

      UOS BLOCK B1       MODEL: BATCHOP      HIERARCHY: B2                        TIME =      3.89

      Integrating from 0.49000     to 0.50000     by 0.10000E-01 HR

      UOS BLOCK B2       MODEL: MIXER        HIERARCHY: B2                        TIME =      3.89
      KODE = 1   NO. TEMP ITER =    1     TEMP =  338.092    
      KPHASE =    2 KODE =    1 T =  338.092     P =  100000.     Q =  0.00000    

      UOS BLOCK B1       MODEL: BATCHOP      HIERARCHY: B2                        TIME =      3.89

      UOS BLOCK B1       MODEL: BATCHOP      HIERARCHY: B2                        TIME =      3.97

      Integrating from 0.50000     to 0.51000     by 0.10000E-01 HR

      UOS BLOCK B2       MODEL: MIXER        HIERARCHY: B2                        TIME =      4.03
      KODE = 1   NO. TEMP ITER =    1     TEMP =  338.092    
      KPHASE =    2 KODE =    1 T =  338.092     P =  100000.     Q =  0.00000    

      UOS BLOCK B1       MODEL: BATCHOP      HIERARCHY: B2                        TIME =      4.03

      UOS BLOCK B1       MODEL: BATCHOP      HIERARCHY: B2                        TIME =      4.03

      Integrating from 0.51000     to 0.52000     by 0.10000E-01 HR

      UOS BLOCK B2       MODEL: MIXER        HIERARCHY: B2                        TIME =      4.03
      KODE = 1   NO. TEMP ITER =    1     TEMP =  338.092    
      KPHASE =    2 KODE =    1 T =  338.092     P =  100000.     Q =  0.00000    

      UOS BLOCK B1       MODEL: BATCHOP      HIERARCHY: B2                        TIME =      4.03

      UOS BLOCK B1       MODEL: BATCHOP      HIERARCHY: B2                        TIME =      4.03

      Integrating from 0.52000     to 0.53000     by 0.10000E-01 HR

      UOS BLOCK B2       MODEL: MIXER        HIERARCHY: B2                        TIME =      4.03
      KODE = 1   NO. TEMP ITER =    1     TEMP =  338.092    
      KPHASE =    2 KODE =    1 T =  338.092     P =  100000.     Q =  0.00000    

      UOS BLOCK B1       MODEL: BATCHOP      HIERARCHY: B2                        TIME =      4.03

      UOS BLOCK B1       MODEL: BATCHOP      HIERARCHY: B2                        TIME =      4.03

      Integrating from 0.53000     to 0.54000     by 0.10000E-01 HR

      UOS BLOCK B2       MODEL: MIXER        HIERARCHY: B2                        TIME =      4.03
      KODE = 1   NO. TEMP ITER =    1     TEMP =  338.092    
      KPHASE =    2 KODE =    1 T =  338.092     P =  100000.     Q =  0.00000    

      UOS BLOCK B1       MODEL: BATCHOP      HIERARCHY: B2                        TIME =      4.03

      UOS BLOCK B1       MODEL: BATCHOP      HIERARCHY: B2                        TIME =      4.03

      Integrating from 0.54000     to 0.55000     by 0.10000E-01 HR

      UOS BLOCK B2       MODEL: MIXER        HIERARCHY: B2                        TIME =      4.03
      KODE = 1   NO. TEMP ITER =    1     TEMP =  338.092    
      KPHASE =    2 KODE =    1 T =  338.092     P =  100000.     Q =  0.00000    

      UOS BLOCK B1       MODEL: BATCHOP      HIERARCHY: B2                        TIME =      4.03

      UOS BLOCK B1       MODEL: BATCHOP      HIERARCHY: B2                        TIME =      4.12

      Integrating from 0.55000     to 0.56000     by 0.10000E-01 HR

      UOS BLOCK B2       MODEL: MIXER        HIERARCHY: B2                        TIME =      4.17
      KODE = 1   NO. TEMP ITER =    1     TEMP =  338.092    
      KPHASE =    2 KODE =    1 T =  338.092     P =  100000.     Q =  0.00000    

      UOS BLOCK B1       MODEL: BATCHOP      HIERARCHY: B2                        TIME =      4.17

      UOS BLOCK B1       MODEL: BATCHOP      HIERARCHY: B2                        TIME =      4.17

      Integrating from 0.56000     to 0.57000     by 0.10000E-01 HR

      UOS BLOCK B2       MODEL: MIXER        HIERARCHY: B2                        TIME =      4.17
      KODE = 1   NO. TEMP ITER =    1     TEMP =  338.092    
      KPHASE =    2 KODE =    1 T =  338.092     P =  100000.     Q =  0.00000    

      UOS BLOCK B1       MODEL: BATCHOP      HIERARCHY: B2                        TIME =      4.17

      UOS BLOCK B1       MODEL: BATCHOP      HIERARCHY: B2                        TIME =      4.17

      Integrating from 0.57000     to 0.58000     by 0.10000E-01 HR

      UOS BLOCK B2       MODEL: MIXER        HIERARCHY: B2                        TIME =      4.17
      KODE = 1   NO. TEMP ITER =    1     TEMP =  338.092    
      KPHASE =    2 KODE =    1 T =  338.092     P =  100000.     Q =  0.00000    

      UOS BLOCK B1       MODEL: BATCHOP      HIERARCHY: B2                        TIME =      4.17

      UOS BLOCK B1       MODEL: BATCHOP      HIERARCHY: B2                        TIME =      4.18

      Integrating from 0.58000     to 0.59000     by 0.10000E-01 HR

      UOS BLOCK B2       MODEL: MIXER        HIERARCHY: B2                        TIME =      4.18
      KODE = 1   NO. TEMP ITER =    1     TEMP =  338.092    
      KPHASE =    2 KODE =    1 T =  338.092     P =  100000.     Q =  0.00000    

      UOS BLOCK B1       MODEL: BATCHOP      HIERARCHY: B2                        TIME =      4.18

      UOS BLOCK B1       MODEL: BATCHOP      HIERARCHY: B2                        TIME =      4.18

      Integrating from 0.59000     to 0.60000     by 0.10000E-01 HR

      UOS BLOCK B2       MODEL: MIXER        HIERARCHY: B2                        TIME =      4.18
      KODE = 1   NO. TEMP ITER =    1     TEMP =  338.092    
      KPHASE =    2 KODE =    1 T =  338.092     P =  100000.     Q =  0.00000    

      UOS BLOCK B1       MODEL: BATCHOP      HIERARCHY: B2                        TIME =      4.18

      UOS BLOCK B1       MODEL: BATCHOP      HIERARCHY: B2                        TIME =      4.26

      Integrating from 0.60000     to 0.61000     by 0.10000E-01 HR

      UOS BLOCK B2       MODEL: MIXER        HIERARCHY: B2                        TIME =      4.31
      KODE = 1   NO. TEMP ITER =    1     TEMP =  338.092    
      KPHASE =    2 KODE =    1 T =  338.092     P =  100000.     Q =  0.00000    

      UOS BLOCK B1       MODEL: BATCHOP      HIERARCHY: B2                        TIME =      4.31

      UOS BLOCK B1       MODEL: BATCHOP      HIERARCHY: B2                        TIME =      4.31

      Integrating from 0.61000     to 0.62000     by 0.10000E-01 HR

      UOS BLOCK B2       MODEL: MIXER        HIERARCHY: B2                        TIME =      4.31
      KODE = 1   NO. TEMP ITER =    1     TEMP =  338.092    
      KPHASE =    2 KODE =    1 T =  338.092     P =  100000.     Q =  0.00000    

      UOS BLOCK B1       MODEL: BATCHOP      HIERARCHY: B2                        TIME =      4.31

      UOS BLOCK B1       MODEL: BATCHOP      HIERARCHY: B2                        TIME =      4.32

      Integrating from 0.62000     to 0.63000     by 0.10000E-01 HR

      UOS BLOCK B2       MODEL: MIXER        HIERARCHY: B2                        TIME =      4.32
      KODE = 1   NO. TEMP ITER =    1     TEMP =  338.092    
      KPHASE =    2 KODE =    1 T =  338.092     P =  100000.     Q =  0.00000    

      UOS BLOCK B1       MODEL: BATCHOP      HIERARCHY: B2                        TIME =      4.32

      UOS BLOCK B1       MODEL: BATCHOP      HIERARCHY: B2                        TIME =      4.32

      Integrating from 0.63000     to 0.64000     by 0.10000E-01 HR

      UOS BLOCK B2       MODEL: MIXER        HIERARCHY: B2                        TIME =      4.32
      KODE = 1   NO. TEMP ITER =    1     TEMP =  338.092    
      KPHASE =    2 KODE =    1 T =  338.092     P =  100000.     Q =  0.00000    

      UOS BLOCK B1       MODEL: BATCHOP      HIERARCHY: B2                        TIME =      4.32

      UOS BLOCK B1       MODEL: BATCHOP      HIERARCHY: B2                        TIME =      4.32

      Integrating from 0.64000     to 0.65000     by 0.10000E-01 HR

      UOS BLOCK B2       MODEL: MIXER        HIERARCHY: B2                        TIME =      4.32
      KODE = 1   NO. TEMP ITER =    1     TEMP =  338.092    
      KPHASE =    2 KODE =    1 T =  338.092     P =  100000.     Q =  0.00000    

      UOS BLOCK B1       MODEL: BATCHOP      HIERARCHY: B2                        TIME =      4.32

      UOS BLOCK B1       MODEL: BATCHOP      HIERARCHY: B2                        TIME =      4.40

      Integrating from 0.65000     to 0.66000     by 0.10000E-01 HR

      UOS BLOCK B2       MODEL: MIXER        HIERARCHY: B2                        TIME =      4.45
      KODE = 1   NO. TEMP ITER =    1     TEMP =  338.092    
      KPHASE =    2 KODE =    1 T =  338.092     P =  100000.     Q =  0.00000    

      UOS BLOCK B1       MODEL: BATCHOP      HIERARCHY: B2                        TIME =      4.45

      UOS BLOCK B1       MODEL: BATCHOP      HIERARCHY: B2                        TIME =      4.46

      Integrating from 0.66000     to 0.67000     by 0.10000E-01 HR

      UOS BLOCK B2       MODEL: MIXER        HIERARCHY: B2                        TIME =      4.46
      KODE = 1   NO. TEMP ITER =    1     TEMP =  338.092    
      KPHASE =    2 KODE =    1 T =  338.092     P =  100000.     Q =  0.00000    

      UOS BLOCK B1       MODEL: BATCHOP      HIERARCHY: B2                        TIME =      4.46

      UOS BLOCK B1       MODEL: BATCHOP      HIERARCHY: B2                        TIME =      4.46

      Integrating from 0.67000     to 0.68000     by 0.10000E-01 HR

      UOS BLOCK B2       MODEL: MIXER        HIERARCHY: B2                        TIME =      4.46
      KODE = 1   NO. TEMP ITER =    1     TEMP =  338.092    
      KPHASE =    2 KODE =    1 T =  338.092     P =  100000.     Q =  0.00000    

      UOS BLOCK B1       MODEL: BATCHOP      HIERARCHY: B2                        TIME =      4.46

      UOS BLOCK B1       MODEL: BATCHOP      HIERARCHY: B2                        TIME =      4.46

      Integrating from 0.68000     to 0.69000     by 0.10000E-01 HR

      UOS BLOCK B2       MODEL: MIXER        HIERARCHY: B2                        TIME =      4.46
      KODE = 1   NO. TEMP ITER =    1     TEMP =  338.092    
      KPHASE =    2 KODE =    1 T =  338.092     P =  100000.     Q =  0.00000    

      UOS BLOCK B1       MODEL: BATCHOP      HIERARCHY: B2                        TIME =      4.46

      UOS BLOCK B1       MODEL: BATCHOP      HIERARCHY: B2                        TIME =      4.46

      Integrating from 0.69000     to 0.70000     by 0.10000E-01 HR

      UOS BLOCK B2       MODEL: MIXER        HIERARCHY: B2                        TIME =      4.46
      KODE = 1   NO. TEMP ITER =    1     TEMP =  338.092    
      KPHASE =    2 KODE =    1 T =  338.092     P =  100000.     Q =  0.00000    

      UOS BLOCK B1       MODEL: BATCHOP      HIERARCHY: B2                        TIME =      4.46

      UOS BLOCK B1       MODEL: BATCHOP      HIERARCHY: B2                        TIME =      4.54

      Integrating from 0.70000     to 0.71000     by 0.10000E-01 HR

      UOS BLOCK B2       MODEL: MIXER        HIERARCHY: B2                        TIME =      4.59
      KODE = 1   NO. TEMP ITER =    1     TEMP =  338.092    
      KPHASE =    2 KODE =    1 T =  338.092     P =  100000.     Q =  0.00000    

      UOS BLOCK B1       MODEL: BATCHOP      HIERARCHY: B2                        TIME =      4.59

      UOS BLOCK B1       MODEL: BATCHOP      HIERARCHY: B2                        TIME =      4.59

      Integrating from 0.71000     to 0.72000     by 0.10000E-01 HR

      UOS BLOCK B2       MODEL: MIXER        HIERARCHY: B2                        TIME =      4.59
      KODE = 1   NO. TEMP ITER =    1     TEMP =  338.092    
      KPHASE =    2 KODE =    1 T =  338.092     P =  100000.     Q =  0.00000    

      UOS BLOCK B1       MODEL: BATCHOP      HIERARCHY: B2                        TIME =      4.59

      UOS BLOCK B1       MODEL: BATCHOP      HIERARCHY: B2                        TIME =      4.59

      Integrating from 0.72000     to 0.73000     by 0.10000E-01 HR

      UOS BLOCK B2       MODEL: MIXER        HIERARCHY: B2                        TIME =      4.59
      KODE = 1   NO. TEMP ITER =    1     TEMP =  338.092    
      KPHASE =    2 KODE =    1 T =  338.092     P =  100000.     Q =  0.00000    

      UOS BLOCK B1       MODEL: BATCHOP      HIERARCHY: B2                        TIME =      4.60

      UOS BLOCK B1       MODEL: BATCHOP      HIERARCHY: B2                        TIME =      4.60

      Integrating from 0.73000     to 0.74000     by 0.10000E-01 HR

      UOS BLOCK B2       MODEL: MIXER        HIERARCHY: B2                        TIME =      4.60
      KODE = 1   NO. TEMP ITER =    1     TEMP =  338.092    
      KPHASE =    2 KODE =    1 T =  338.092     P =  100000.     Q =  0.00000    

      UOS BLOCK B1       MODEL: BATCHOP      HIERARCHY: B2                        TIME =      4.60

      UOS BLOCK B1       MODEL: BATCHOP      HIERARCHY: B2                        TIME =      4.60

      Integrating from 0.74000     to 0.75000     by 0.10000E-01 HR

      UOS BLOCK B2       MODEL: MIXER        HIERARCHY: B2                        TIME =      4.60
      KODE = 1   NO. TEMP ITER =    1     TEMP =  338.092    
      KPHASE =    2 KODE =    1 T =  338.092     P =  100000.     Q =  0.00000    

      UOS BLOCK B1       MODEL: BATCHOP      HIERARCHY: B2                        TIME =      4.60

      UOS BLOCK B1       MODEL: BATCHOP      HIERARCHY: B2                        TIME =      4.69

[...]
      KODE = 1  NTRIAL =   4  T = 545.8990  P =  100000.      V = 0.943284      Q =  0.00000    
      KODE = 1  NTRIAL =   4  T = 543.7853  P =  100000.      V = 0.886341      Q =  0.00000    
      KODE = 1  NTRIAL =   4  T = 541.5520  P =  100000.      V = 0.829323      Q =  0.00000    
      KODE = 1  NTRIAL =   4  T = 539.1509  P =  100000.      V = 0.772387      Q =  0.00000    
      KODE = 1  NTRIAL =   4  T = 536.5276  P =  100000.      V = 0.715684      Q =  0.00000    
      KODE = 1  NTRIAL =   4  T = 533.6235  P =  100000.      V = 0.659341      Q =  0.00000    
      KODE = 1  NTRIAL =   4  T = 530.3814  P =  100000.      V = 0.603447      Q =  0.00000    
      KODE = 1  NTRIAL =   5  T = 526.7541  P =  100000.      V = 0.548012      Q =  0.00000    
      KODE = 1  NTRIAL =   5  T = 522.7205  P =  100000.      V = 0.492930      Q =  0.00000    
      KODE = 1  NTRIAL =   5  T = 518.3078  P =  100000.      V = 0.437921      Q =  0.00000    
      KODE = 1  NTRIAL =   5  T = 513.6102  P =  100000.      V = 0.382518      Q =  0.00000    
      KODE = 1  NTRIAL =   5  T = 508.7849  P =  100000.      V = 0.326147      Q =  0.00000    
      KODE = 1  NTRIAL =   5  T = 504.0060  P =  100000.      V = 0.268329      Q =  0.00000    
      KODE = 1  NTRIAL =   5  T = 499.3795  P =  100000.      V = 0.208971      Q =  0.00000    
      KODE = 1  NTRIAL =   5  T = 494.8191  P =  100000.      V = 0.148778      Q =  0.00000    
      KODE = 1  NTRIAL =   5  T = 489.7366  P =  100000.      V = 9.045950E-02  Q =  0.00000    
      KODE = 1  NTRIAL =   5  T = 481.9644  P =  100000.      V = 4.312224E-02  Q =  0.00000    
      KODE = 1  NTRIAL =   5  T = 468.4191  P =  100000.      V = 1.938092E-02  Q =  0.00000    
      KODE = 1  NTRIAL =   6  T = 451.0769  P =  100000.      V = 1.069074E-02  Q =  0.00000    
      KODE = 1  NTRIAL =   6  T = 432.3993  P =  100000.      V = 6.597268E-03  Q =  0.00000    
      KODE = 1  NTRIAL =   6  T = 413.1500  P =  100000.      V = 3.737389E-03  Q =  0.00000    

      BEGIN COLD-TQCURVE INLET   

      BEGIN HOT-TQCURVE  INLET   
      END HEATX TQ-CURVE CALCULATIONS FOR BLOCK B5      

      GENERATING RESULTS FOR UOS BLOCK B20      MODEL: HEATX                      TIME =    192.13
      SPECIFICATION: HOT OUTLET TEMP       363.15    
      FLOW TYPE:     COUNTERCURRENT  
      HOT:  TIN=  437.32  PIN= 50000.       TOUT=  363.15  POUT= 50000.    
      COLD: TIN=  355.42  PIN=0.10000E+06   TOUT=  357.69  POUT=0.10000E+06
      AREA=0.41087           DUTY= 10766.           FT=1.00000

      BEGIN HEATX TQ-CURVE CALCULATIONS FOR BLOCK B20     

      BEGIN COLD-TQCURVE INLET   
      NO. TEMP ITER =    4     TEMP =  357.691    
      KODE = 1  NTRIAL =   2  T = 357.6910  P =  100000.      V =  0.00000      Q =  0.00000    
      NO. TEMP ITER =    4     TEMP =  357.583    
      KODE = 1  NTRIAL =   2  T = 357.5828  P =  100000.      V =  0.00000      Q =  0.00000    
      NO. TEMP ITER =    4     TEMP =  357.475    
      KODE = 1  NTRIAL =   2  T = 357.4747  P =  100000.      V =  0.00000      Q =  0.00000    
      NO. TEMP ITER =    4     TEMP =  357.367    
      KODE = 1  NTRIAL =   2  T = 357.3666  P =  100000.      V =  0.00000      Q =  0.00000    
      NO. TEMP ITER =    4     TEMP =  357.258    
      KODE = 1  NTRIAL =   2  T = 357.2585  P =  100000.      V =  0.00000      Q =  0.00000    
      NO. TEMP ITER =    4     TEMP =  357.150    
      KODE = 1  NTRIAL =   2  T = 357.1504  P =  100000.      V =  0.00000      Q =  0.00000    
      NO. TEMP ITER =    4     TEMP =  357.042    
      KODE = 1  NTRIAL =   2  T = 357.0423  P =  100000.      V =  0.00000      Q =  0.00000    
      NO. TEMP ITER =    4     TEMP =  356.934    
      KODE = 1  NTRIAL =   2  T = 356.9341  P =  100000.      V =  0.00000      Q =  0.00000    
      NO. TEMP ITER =    4     TEMP =  356.826    
      KODE = 1  NTRIAL =   2  T = 356.8260  P =  100000.      V =  0.00000      Q =  0.00000    
      NO. TEMP ITER =    4     TEMP =  356.718    
      KODE = 1  NTRIAL =   2  T = 356.7179  P =  100000.      V =  0.00000      Q =  0.00000    
      NO. TEMP ITER =    4     TEMP =  356.610    
      KODE = 1  NTRIAL =   2  T = 356.6098  P =  100000.      V =  0.00000      Q =  0.00000    
      NO. TEMP ITER =    4     TEMP =  356.502    
      KODE = 1  NTRIAL =   2  T = 356.5017  P =  100000.      V =  0.00000      Q =  0.00000    
      NO. TEMP ITER =    4     TEMP =  356.394    
      KODE = 1  NTRIAL =   2  T = 356.3936  P =  100000.      V =  0.00000      Q =  0.00000    
      NO. TEMP ITER =    4     TEMP =  356.285    
      KODE = 1  NTRIAL =   2  T = 356.2855  P =  100000.      V =  0.00000      Q =  0.00000    
      NO. TEMP ITER =    4     TEMP =  356.177    
      KODE = 1  NTRIAL =   2  T = 356.1774  P =  100000.      V =  0.00000      Q =  0.00000    
      NO. TEMP ITER =    4     TEMP =  356.069    
      KODE = 1  NTRIAL =   2  T = 356.0693  P =  100000.      V =  0.00000      Q =  0.00000    
      NO. TEMP ITER =    4     TEMP =  355.961    
      KODE = 1  NTRIAL =   2  T = 355.9612  P =  100000.      V =  0.00000      Q =  0.00000    
      NO. TEMP ITER =    4     TEMP =  355.853    
      KODE = 1  NTRIAL =   2  T = 355.8531  P =  100000.      V =  0.00000      Q =  0.00000    
      NO. TEMP ITER =    4     TEMP =  355.745    
      KODE = 1  NTRIAL =   2  T = 355.7450  P =  100000.      V =  0.00000      Q =  0.00000    
      NO. TEMP ITER =    4     TEMP =  355.637    
      KODE = 1  NTRIAL =   2  T = 355.6369  P =  100000.      V =  0.00000      Q =  0.00000    
      NO. TEMP ITER =    4     TEMP =  355.529    
      KODE = 1  NTRIAL =   2  T = 355.5288  P =  100000.      V =  0.00000      Q =  0.00000    
      NO. TEMP ITER =    4     TEMP =  355.421    
      KODE = 1  NTRIAL =   2  T = 355.4207  P =  100000.      V =  0.00000      Q =  0.00000    

      BEGIN HOT-TQCURVE  INLET   
      KODE = 1  NTRIAL =  12  T = 437.3193  P =  50000.0      V =  1.00000      Q =  0.00000    
      KODE = 1  NTRIAL =   4  T = 431.4206  P =  50000.0      V = 0.998672      Q =  0.00000    
      KODE = 1  NTRIAL =   5  T = 425.1992  P =  50000.0      V = 0.997453      Q =  0.00000    
      KODE = 1  NTRIAL =   5  T = 418.8274  P =  50000.0      V = 0.996232      Q =  0.00000    
      KODE = 1  NTRIAL =   5  T = 412.5148  P =  50000.0      V = 0.994877      Q =  0.00000    
      KODE = 1  NTRIAL =   6  T = 406.4780  P =  50000.0      V = 0.993250      Q =  0.00000    
      KODE = 1  NTRIAL =   6  T = 400.9707  P =  50000.0      V = 0.991180      Q =  0.00000    
      KODE = 1  NTRIAL =   6  T = 396.2705  P =  50000.0      V = 0.988489      Q =  0.00000    
      KODE = 1  NTRIAL =   6  T = 392.4981  P =  50000.0      V = 0.985120      Q =  0.00000    
      KODE = 1  NTRIAL =   5  T = 389.5104  P =  50000.0      V = 0.981196      Q =  0.00000    
      KODE = 1  NTRIAL =   5  T = 387.0495  P =  50000.0      V = 0.976913      Q =  0.00000    
      KODE = 1  NTRIAL =   5  T = 384.8973  P =  50000.0      V = 0.972433      Q =  0.00000    
      KODE = 1  NTRIAL =   5  T = 382.9083  P =  50000.0      V = 0.967860      Q =  0.00000    
      KODE = 1  NTRIAL =   5  T = 380.9901  P =  50000.0      V = 0.963264      Q =  0.00000    
      KODE = 1  NTRIAL =   5  T = 379.0823  P =  50000.0      V = 0.958688      Q =  0.00000    
      KODE = 1  NTRIAL =   5  T = 377.1424  P =  50000.0      V = 0.954164      Q =  0.00000    
      KODE = 1  NTRIAL =   5  T = 375.1369  P =  50000.0      V = 0.949717      Q =  0.00000    
      KODE = 1  NTRIAL =   5  T = 373.0376  P =  50000.0      V = 0.945370      Q =  0.00000    
      KODE = 1  NTRIAL =   5  T = 370.8174  P =  50000.0      V = 0.941143      Q =  0.00000    
      KODE = 1  NTRIAL =   5  T = 368.4492  P =  50000.0      V = 0.937059      Q =  0.00000    
      KODE = 1  NTRIAL =   5  T = 365.9040  P =  50000.0      V = 0.933138      Q =  0.00000    
      KODE = 1  NTRIAL =   5  T = 363.1500  P =  50000.0      V = 0.929406      Q =  0.00000    

      BEGIN COLD-TQCURVE INLET   

      BEGIN HOT-TQCURVE  INLET   
      END HEATX TQ-CURVE CALCULATIONS FOR BLOCK B20     

      GENERATING RESULTS FOR UOS BLOCK B21      MODEL: HEATX                      TIME =    192.14
      SPECIFICATION: HOT OUTLET TEMP       363.15    
      FLOW TYPE:     COUNTERCURRENT  
      HOT:  TIN=  467.84  PIN=0.10000E+06   TOUT=  363.15  POUT=0.10000E+06
      COLD: TIN=  357.69  PIN=0.10000E+06   TOUT=  361.21  POUT=0.10000E+06
      AREA=0.57626           DUTY= 16674.           FT=1.00000

      BEGIN HEATX TQ-CURVE CALCULATIONS FOR BLOCK B21     

      BEGIN COLD-TQCURVE INLET   
      NO. TEMP ITER =    4     TEMP =  361.208    
      KODE = 1  NTRIAL =   2  T = 361.2077  P =  100000.      V =  0.00000      Q =  0.00000    
      NO. TEMP ITER =    4     TEMP =  361.040    
      KODE = 1  NTRIAL =   2  T = 361.0402  P =  100000.      V =  0.00000      Q =  0.00000    
      NO. TEMP ITER =    4     TEMP =  360.873    
      KODE = 1  NTRIAL =   2  T = 360.8728  P =  100000.      V =  0.00000      Q =  0.00000    
      NO. TEMP ITER =    4     TEMP =  360.705    
      KODE = 1  NTRIAL =   2  T = 360.7053  P =  100000.      V =  0.00000      Q =  0.00000    
      NO. TEMP ITER =    4     TEMP =  360.538    
      KODE = 1  NTRIAL =   2  T = 360.5378  P =  100000.      V =  0.00000      Q =  0.00000    
      NO. TEMP ITER =    4     TEMP =  360.370    
      KODE = 1  NTRIAL =   2  T = 360.3703  P =  100000.      V =  0.00000      Q =  0.00000    
      NO. TEMP ITER =    4     TEMP =  360.203    
      KODE = 1  NTRIAL =   2  T = 360.2029  P =  100000.      V =  0.00000      Q =  0.00000    
      NO. TEMP ITER =    4     TEMP =  360.035    
      KODE = 1  NTRIAL =   2  T = 360.0354  P =  100000.      V =  0.00000      Q =  0.00000    
      NO. TEMP ITER =    4     TEMP =  359.868    
      KODE = 1  NTRIAL =   2  T = 359.8679  P =  100000.      V =  0.00000      Q =  0.00000    
      NO. TEMP ITER =    4     TEMP =  359.700    
      KODE = 1  NTRIAL =   2  T = 359.7005  P =  100000.      V =  0.00000      Q =  0.00000    
      NO. TEMP ITER =    4     TEMP =  359.533    
      KODE = 1  NTRIAL =   2  T = 359.5330  P =  100000.      V =  0.00000      Q =  0.00000    
      NO. TEMP ITER =    4     TEMP =  359.366    
      KODE = 1  NTRIAL =   2  T = 359.3655  P =  100000.      V =  0.00000      Q =  0.00000    
      NO. TEMP ITER =    4     TEMP =  359.198    
      KODE = 1  NTRIAL =   2  T = 359.1981  P =  100000.      V =  0.00000      Q =  0.00000    
      NO. TEMP ITER =    4     TEMP =  359.031    
      KODE = 1  NTRIAL =   2  T = 359.0306  P =  100000.      V =  0.00000      Q =  0.00000    
      NO. TEMP ITER =    4     TEMP =  358.863    
      KODE = 1  NTRIAL =   2  T = 358.8631  P =  100000.      V =  0.00000      Q =  0.00000    
      NO. TEMP ITER =    4     TEMP =  358.696    
      KODE = 1  NTRIAL =   2  T = 358.6957  P =  100000.      V =  0.00000      Q =  0.00000    
      NO. TEMP ITER =    4     TEMP =  358.528    
      KODE = 1  NTRIAL =   2  T = 358.5282  P =  100000.      V =  0.00000      Q =  0.00000    
      NO. TEMP ITER =    4     TEMP =  358.361    
      KODE = 1  NTRIAL =   2  T = 358.3608  P =  100000.      V =  0.00000      Q =  0.00000    
      NO. TEMP ITER =    4     TEMP =  358.193    
      KODE = 1  NTRIAL =   2  T = 358.1933  P =  100000.      V =  0.00000      Q =  0.00000    
      NO. TEMP ITER =    4     TEMP =  358.026    
      KODE = 1  NTRIAL =   2  T = 358.0259  P =  100000.      V =  0.00000      Q =  0.00000    
      NO. TEMP ITER =    4     TEMP =  357.858    
      KODE = 1  NTRIAL =   2  T = 357.8584  P =  100000.      V =  0.00000      Q =  0.00000    
      NO. TEMP ITER =    4     TEMP =  357.691    
      KODE = 1  NTRIAL =   2  T = 357.6910  P =  100000.      V =  0.00000      Q =  0.00000    

      BEGIN HOT-TQCURVE  INLET   
      NO. TEMP ITER =    5     TEMP =  467.839    
      KODE = 1  NTRIAL =   3  T = 467.8387  P =  100000.      V =  0.00000      Q =  0.00000    
      NO. TEMP ITER =    5     TEMP =  463.042    
      KODE = 1  NTRIAL =   3  T = 463.0417  P =  100000.      V =  0.00000      Q =  0.00000    
      NO. TEMP ITER =    5     TEMP =  458.226    
      KODE = 1  NTRIAL =   3  T = 458.2264  P =  100000.      V =  0.00000      Q =  0.00000    
      NO. TEMP ITER =    5     TEMP =  453.393    
      KODE = 1  NTRIAL =   3  T = 453.3928  P =  100000.      V =  0.00000      Q =  0.00000    
      NO. TEMP ITER =    6     TEMP =  448.541    
      KODE = 1  NTRIAL =   3  T = 448.5408  P =  100000.      V =  0.00000      Q =  0.00000    
      NO. TEMP ITER =    6     TEMP =  443.670    
      KODE = 1  NTRIAL =   3  T = 443.6702  P =  100000.      V =  0.00000      Q =  0.00000    
      NO. TEMP ITER =    6     TEMP =  438.781    
      KODE = 1  NTRIAL =   3  T = 438.7811  P =  100000.      V =  0.00000      Q =  0.00000    
      NO. TEMP ITER =    6     TEMP =  433.873    
      KODE = 1  NTRIAL =   3  T = 433.8734  P =  100000.      V =  0.00000      Q =  0.00000    
      NO. TEMP ITER =    6     TEMP =  428.947    
      KODE = 1  NTRIAL =   3  T = 428.9468  P =  100000.      V =  0.00000      Q =  0.00000    
      NO. TEMP ITER =    6     TEMP =  424.001    
      KODE = 1  NTRIAL =   3  T = 424.0015  P =  100000.      V =  0.00000      Q =  0.00000    
      NO. TEMP ITER =    6     TEMP =  419.037    
      KODE = 1  NTRIAL =   3  T = 419.0372  P =  100000.      V =  0.00000      Q =  0.00000    
      NO. TEMP ITER =    6     TEMP =  414.054    
      KODE = 1  NTRIAL =   3  T = 414.0538  P =  100000.      V =  0.00000      Q =  0.00000    
      NO. TEMP ITER =    6     TEMP =  409.051    
      KODE = 1  NTRIAL =   3  T = 409.0513  P =  100000.      V =  0.00000      Q =  0.00000    
      NO. TEMP ITER =    6     TEMP =  404.030    
      KODE = 1  NTRIAL =   3  T = 404.0296  P =  100000.      V =  0.00000      Q =  0.00000    
      NO. TEMP ITER =    6     TEMP =  398.989    
      KODE = 1  NTRIAL =   3  T = 398.9885  P =  100000.      V =  0.00000      Q =  0.00000    
      NO. TEMP ITER =    6     TEMP =  393.928    
      KODE = 1  NTRIAL =   3  T = 393.9280  P =  100000.      V =  0.00000      Q =  0.00000    
      NO. TEMP ITER =    6     TEMP =  388.848    
      KODE = 1  NTRIAL =   3  T = 388.8479  P =  100000.      V =  0.00000      Q =  0.00000    
      NO. TEMP ITER =    6     TEMP =  383.748    
      KODE = 1  NTRIAL =   3  T = 383.7482  P =  100000.      V =  0.00000      Q =  0.00000    
      NO. TEMP ITER =    6     TEMP =  378.629    
      KODE = 1  NTRIAL =   3  T = 378.6286  P =  100000.      V =  0.00000      Q =  0.00000    
      NO. TEMP ITER =    6     TEMP =  373.489    
      KODE = 1  NTRIAL =   3  T = 373.4891  P =  100000.      V =  0.00000      Q =  0.00000    
      NO. TEMP ITER =    6     TEMP =  368.330    
      KODE = 1  NTRIAL =   3  T = 368.3296  P =  100000.      V =  0.00000      Q =  0.00000    
      NO. TEMP ITER =    6     TEMP =  363.150    
      KODE = 1  NTRIAL =   3  T = 363.1500  P =  100000.      V =  0.00000      Q =  0.00000    

      BEGIN COLD-TQCURVE INLET   

      BEGIN HOT-TQCURVE  INLET   
      END HEATX TQ-CURVE CALCULATIONS FOR BLOCK B21     

      GENERATING RESULTS FOR UOS BLOCK B23      MODEL: HEATER                     TIME =    192.15
      STREAM CATOUT WILL BE FLASHED FOR PROPERTY CALCULATIONS.
      KODE = 1   NO. TEMP ITER =    1     TEMP =  338.151    
      KPHASE =    3 KODE =    1 T =  338.151     P =  100000.     Q =  0.00000    
      STREAM LAOOUT WILL BE FLASHED FOR PROPERTY CALCULATIONS.
      KODE = 1   NO. TEMP ITER =    3     TEMP =  443.755    
      KPHASE =    3 KODE =    1 T =  443.755     P =  100000.     Q =  0.00000    

      BEGIN HEATX TQ-CURVE REPORT FOR BLOCK B16     

      BEGIN COLD-TQCURVE INLET   

      BEGIN HOT-TQCURVE  INLET   
      END HEATX TQ-CURVE REPORT FOR BLOCK B16     

 Report Writer entered                                                            Time =    360.91

      BEGIN HEATX TQ-CURVE REPORT FOR BLOCK B16     

      BEGIN COLD-TQCURVE INLET   

      BEGIN HOT-TQCURVE  INLET   
      END HEATX TQ-CURVE REPORT FOR BLOCK B16     

      BEGIN HEATX TQ-CURVE REPORT FOR BLOCK B20     

      BEGIN COLD-TQCURVE INLET   

      BEGIN HOT-TQCURVE  INLET   
      END HEATX TQ-CURVE REPORT FOR BLOCK B20     

      BEGIN HEATX TQ-CURVE REPORT FOR BLOCK B21     

      BEGIN COLD-TQCURVE INLET   

      BEGIN HOT-TQCURVE  INLET   
      END HEATX TQ-CURVE REPORT FOR BLOCK B21     

      BEGIN HEATX TQ-CURVE REPORT FOR BLOCK B5      

      BEGIN COLD-TQCURVE INLET   

      BEGIN HOT-TQCURVE  INLET   
      END HEATX TQ-CURVE REPORT FOR BLOCK B5      

      BEGIN HEATX TQ-CURVE REPORT FOR BLOCK HEATX1  

      BEGIN COLD-TQCURVE INLET   

      BEGIN HOT-TQCURVE  INLET   
      END HEATX TQ-CURVE REPORT FOR BLOCK HEATX1  

      BEGIN HEATX TQ-CURVE REPORT FOR BLOCK HEATX2  

      BEGIN COLD-TQCURVE INLET   

      BEGIN HOT-TQCURVE  INLET   
      END HEATX TQ-CURVE REPORT FOR BLOCK HEATX2  
      STREAM CATOUT WILL BE FLASHED FOR PROPERTY CALCULATIONS.
      KODE = 1   NO. TEMP ITER =    1     TEMP =  338.151    
      KPHASE =    3 KODE =    1 T =  338.151     P =  100000.     Q =  0.00000    
      STREAM LAOOUT WILL BE FLASHED FOR PROPERTY CALCULATIONS.
      KODE = 1   NO. TEMP ITER =    3     TEMP =  443.755    
      KPHASE =    3 KODE =    1 T =  443.755     P =  100000.     Q =  0.00000    

      BEGIN CALCULATIONS FOR PROP-TABLE BINRY-2                                   TIME =    361.55

 Results generated                                                                Time =    361.78

 Report Writer entered                                                            Time =    372.15

      BEGIN HEATX TQ-CURVE REPORT FOR BLOCK B16     

      BEGIN COLD-TQCURVE INLET   

      BEGIN HOT-TQCURVE  INLET   
      END HEATX TQ-CURVE REPORT FOR BLOCK B16     

      BEGIN HEATX TQ-CURVE REPORT FOR BLOCK B20     

      BEGIN COLD-TQCURVE INLET   

      BEGIN HOT-TQCURVE  INLET   
      END HEATX TQ-CURVE REPORT FOR BLOCK B20     

      BEGIN HEATX TQ-CURVE REPORT FOR BLOCK B21     

      BEGIN COLD-TQCURVE INLET   

      BEGIN HOT-TQCURVE  INLET   
      END HEATX TQ-CURVE REPORT FOR BLOCK B21     

      BEGIN HEATX TQ-CURVE REPORT FOR BLOCK B5      

      BEGIN COLD-TQCURVE INLET   

      BEGIN HOT-TQCURVE  INLET   
      END HEATX TQ-CURVE REPORT FOR BLOCK B5      

      BEGIN HEATX TQ-CURVE REPORT FOR BLOCK HEATX1  

      BEGIN COLD-TQCURVE INLET   

      BEGIN HOT-TQCURVE  INLET   
      END HEATX TQ-CURVE REPORT FOR BLOCK HEATX1  

      BEGIN HEATX TQ-CURVE REPORT FOR BLOCK HEATX2  

      BEGIN COLD-TQCURVE INLET   

      BEGIN HOT-TQCURVE  INLET   
      END HEATX TQ-CURVE REPORT FOR BLOCK HEATX2  
      STREAM CATOUT WILL BE FLASHED FOR PROPERTY CALCULATIONS.
      KODE = 1   NO. TEMP ITER =    1     TEMP =  338.151    
      KPHASE =    3 KODE =    1 T =  338.151     P =  100000.     Q =  0.00000    
      STREAM LAOOUT WILL BE FLASHED FOR PROPERTY CALCULATIONS.
      KODE = 1   NO. TEMP ITER =    3     TEMP =  443.755    
      KPHASE =    3 KODE =    1 T =  443.755     P =  100000.     Q =  0.00000    

      BEGIN CALCULATIONS FOR PROP-TABLE BINRY-2                                   TIME =    372.75

 Results generated                                                                Time =    372.97

RUN SAVED



 *** SUMMARY OF ERRORS ***

                  PHYSICAL
                  PROPERTY  SYSTEM  SIMULATION
 TERMINAL ERRORS      0        0         0
   SEVERE ERRORS      0        0         0
          ERRORS      0        0         2
        WARNINGS     86        0        33
