
 + + + + + + + + + + + + + + + + + + + + + + + + + + + + + + + + + + + + + + + +
 + + + + + + + + + + + + + + + + + + + + + + + + + + + + + + + + + + + + + + + +
 + +                                                                         + +
 + +                      ASPEN PLUS CALCULATION HISTORY                     + +
 + +                                                                         + +
 + + + + + + + + + + + + + + + + + + + + + + + + + + + + + + + + + + + + + + + +
 + + + + + + + + + + + + + + + + + + + + + + + + + + + + + + + + + + + + + + + +

 ASPEN PLUS IS A TRADEMARK OF           HOTLINE:
 ASPEN TECHNOLOGY, INC.                 U.S.A. 888/996-7100
 781/221-6400                           EUROPE (44) 1189-226555

 PLATFORM: WINDOWS                                       MARCH 20, 2020      
 VERSION: 36.0   Build 249                               FRIDAY      
 INSTALLATION:                                           3:15:18 A.M.        

 THIS COPY OF ASPEN PLUS LICENSED TO RENSSELAER POLYTECHNIC I        


      ASPEN PLUS (R) IS A PROPRIETARY PRODUCT OF ASPEN TECHNOLOGY, INC.
      (ASPENTECH), AND MAY BE USED ONLY UNDER AGREEMENT WITH ASPENTECH.
      RESTRICTED RIGHTS LEGEND:  USE, REPRODUCTION, OR DISCLOSURE BY THE
      U.S. GOVERNMENT IS SUBJECT TO RESTRICTIONS SET FORTH IN 
      (i) FAR 52.227-14, Alt. III, (ii) FAR 52.227-19, (iii) DFARS 
      252.227-7013(c)(1)(ii), or (iv) THE ACCOMPANYING LICENSE AGREEMENT,
      AS APPLICABLE. FOR PURPOSES OF THE FAR, THIS SOFTWARE SHALL BE DEEMED
      TO BE "UNPUBLISHED" AND LICENSED WITH DISCLOSURE PROHIBITIONS.
      CONTRACTOR/SUBCONTRACTOR: ASPEN TECHNOLOGY, INC. 20 CROSBY DRIVE,
      BEDFORD, MA 01730.
 *** INPUT SUMMARY ***

 >>CURRENT RUN

   ORIGINAL RUN                           MARCH 20, 2020      
   3:15:18 A.M.                           FRIDAY      
   INPUT FILE: _1425ako.inm
   RUN ID : _1425ako
          1    ;
          2    ;Input file created by Aspen Plus Rel. 36.0 at 03:15:14 Fri Mar 20, 2020
          3    ;Directory   Runid FULL RECYCLE TEST$BACKUP
          4    ;
          5
          6
          7    DYNAMICS
          8        DYNAMICS RESULTS=ON
          9
         10    IN-UNITS MET PRESSURE=bar TEMPERATURE=C DELTA-T=C PDROP=bar  &
         11            INVERSE-PRES='1/bar' SHORT-LENGTH=mm
         12
         13    DEF-STREAMS CONVEN ALL
         14
         15    MODEL-OPTION
         16
         17    DATABANKS 'APV100 PURE36' / 'APV100 AQUEOUS' / 'APV100 SOLIDS' &
         18             / 'APV100 INORGANIC' / 'APESV100 AP-EOS' /  &
         19            'NISTV100 NIST-TRC' / NOASPENPCD
         20
         21    PROP-SOURCES 'APV100 PURE36' / 'APV100 AQUEOUS' /  &
         22            'APV100 SOLIDS' / 'APV100 INORGANIC' / 'APESV100 AP-EOS' &
         23             / 'NISTV100 NIST-TRC'
         24
         25    COMPONENTS
         26        GLYCEROL C3H8O3 /
         27        TRIOL-01 C57H104O6 /
         28        TRILI-01 C57H98O6 /
         29        METHA-01 CH4O /
         30        METHY-01 C19H36O2 /
         31        METHY-02 C19H34O2 /
         32        UREA CH4N2O /
         33        CALCI-01 CAO /
         34        LANTH-01 LA2O3 /
         35        AMMON-01 H3N /
         36        GLYCE-01 C4H6O4-N1 /
         37        NITROGEN N2 /
         38        WATER H2O
         39
         40    CISOLID-COMPS CALCI-01 LANTH-01
         41
         42    SOLVE
         43        RUN-MODE MODE=SIM
         44
         45    FLOWSHEET
         46        HIERARCHY B2
         47        CONNECT $C-1 IN=S16 OUT="B2.S4"
         48        CONNECT $C-3 IN=CAOIN OUT="B2.CATIN"
         49        CONNECT $C-2 IN="B2.S5" OUT=S5
         50        BLOCK B4 IN=S6 OUT=S8 GLYCEROL
         51        BLOCK B3 IN=S5 OUT=S6 CATOUT
         52        BLOCK B1 IN=OILS METHANOL OUT=S4
         53        BLOCK B6 IN=S2 OUT=METHOUT BIO
         54        BLOCK B9 IN=GLYCEROL OUT=METHOUT2 S11
         55        BLOCK B8 IN=S10 OUT=S13
         56        BLOCK B12 IN=S13 OUT=S15 LAOOUT
         57        BLOCK B13 IN=S15 OUT=HOTAMMO S17
         58        BLOCK B14 IN=S21 OUT=S18 GCHOT
         59        BLOCK B15 IN=S17 OUT=S21
         60        BLOCK HEATX1 IN=WATERHOT S8 OUT=WATEROUT S2
         61        BLOCK B11 IN=LAOIN UREAIN S11 GLYCRE OUT=S9
         62        BLOCK HEATX2 IN=GCHOT S9 OUT=GCHOT2 S10
         63        BLOCK B7 IN=METHOUT2 OUT=S3 S7
         64        BLOCK B17 IN=S4 S20 OUT=S1
         65        BLOCK B16 IN=S14 WATERCOO OUT=S20 WATERHOT
         66        BLOCK B19 IN=S3 OUT=S23
         67        BLOCK B10 IN=S1 OUT=S16
         68        BLOCK B18 IN=S23 METHOUT OUT=S14
         69        BLOCK B5 IN=S18 WATEROUT OUT=GLYCRE S12
         70        BLOCK B20 IN=HOTAMMO S12 OUT=COLDAMMO S19
         71        BLOCK B21 IN=GCHOT2 S19 OUT=GCPROD S24
         72        BLOCK B22 IN=S24 BIO OUT=WASTEH2O S25
         73
         74    PROPERTIES SR-POLAR
         75        PROPERTIES IDEAL / NRTL
         76
         77    ESTIMATE ALL
         78
         79    PROP-DATA PCES-1
         80        IN-UNITS MET PRESSURE=bar TEMPERATURE=C DELTA-T=C PDROP=bar  &
         81            INVERSE-PRES='1/bar' SHORT-LENGTH=mm
         82        PROP-LIST OMEGA / DHVLB / VB / RGYR / RKTZRA / VLSTD
         83        PVAL UREA .5992461800 / 20985.95586 / 48.82570000 /  &
         84            2.6000000E-10 / .2351731880 / 48.82570000
         85        PROP-LIST RKTZRA / VLSTD
         86        PVAL CALCI-01 .2918596200 / 298.9063450
         87        PVAL GLYCE-01 .2037543860 / 69.23640000
         88
         89    PROP-DATA DHVLWT-1
         90        IN-UNITS MET PRESSURE=bar TEMPERATURE=C DELTA-T=C PDROP=bar  &
         91            INVERSE-PRES='1/bar' SHORT-LENGTH=mm
         92        PROP-LIST DHVLWT
         93        PVAL CALCI-01 5.38817025E+5 3396.850000 .3800000000 0.0  &
         94            3396.850000
         95
         96    PROP-DATA KLDIP-1
         97        IN-UNITS MET PRESSURE=bar TEMPERATURE=C DELTA-T=C PDROP=bar  &
         98            INVERSE-PRES='1/bar' SHORT-LENGTH=mm
         99        PROP-LIST KLDIP
        100        PVAL UREA .0494897448 1.57543997E-3 -1.0085909E-5  &
        101            2.44404255E-8 -2.254923E-11 191.8500000 424.8000000
        102        PVAL CALCI-01 -.6218197112 7.78300188E-4 -2.8775749E-7  &
        103            4.5627261E-11 -2.727830E-15 3396.850000 5686.650000
        104
        105    PROP-DATA MULAND-1
        106        IN-UNITS MET PRESSURE=bar TEMPERATURE=C DELTA-T=C PDROP=bar  &
        107            INVERSE-PRES='1/bar' SHORT-LENGTH=mm
        108        PROP-LIST MULAND
        109        PVAL UREA 129.3349773 -7951.576030 -18.41338230 191.8500000  &
        110            424.8000000
        111        PVAL CALCI-01 81.01615608 -12127.32210 -10.25255770  &
        112            1126.850000 1706.850000
        113
        114    PROP-DATA PLXANT-1
        115        IN-UNITS MET PRESSURE=bar TEMPERATURE=C DELTA-T=C PDROP=bar  &
        116            INVERSE-PRES='1/bar' SHORT-LENGTH=mm
        117        PROP-LIST PLXANT
        118        PVAL UREA 77.19179774 -10639.35530 0.0 0.0 -8.846083610  &
        119            3.4142003E-18 6.000000000 191.8500000 431.8500000
        120
        121    PROP-DATA SIGDIP-1
        122        IN-UNITS MET PRESSURE=bar TEMPERATURE=C DELTA-T=C PDROP=bar  &
        123            INVERSE-PRES='1/bar' SHORT-LENGTH=mm
        124        PROP-LIST SIGDIP
        125        PVAL UREA 156.7709600 1.222222220 5.9537296E-10  &
        126            -6.635066E-10 2.6632382E-10 191.8500000 417.7500000
        127        PVAL GLYCE-01 156.3532160 1.222222220 5.9089352E-10  &
        128            -6.640628E-10 2.6313812E-10 323.7990000 543.1900000
        129        PVAL CALCI-01 139.2135830 1.222222220 -2.171954E-10  &
        130            2.3955375E-10 -9.673330E-11 3396.850000 5626.450000
        131
        132    PROP-DATA HOCETA-1
        133        IN-UNITS MET PRESSURE=bar TEMPERATURE=C DELTA-T=C PDROP=bar  &
        134            INVERSE-PRES='1/bar' SHORT-LENGTH=mm
        135        PROP-LIST HOCETA
        136        BPVAL METHA-01 METHA-01 1.630000000
        137        BPVAL METHA-01 AMMON-01 .2000000000
        138        BPVAL AMMON-01 METHA-01 .2000000000
        139
        140    PROP-DATA NRTL-1
        141        IN-UNITS MET PRESSURE=bar TEMPERATURE=C DELTA-T=C PDROP=bar  &
        142            INVERSE-PRES='1/bar' SHORT-LENGTH=mm
        143        PROP-LIST NRTL
        144        BPVAL GLYCEROL METHA-01 0.0 -218.5217000 .3000000000 0.0  &
        145            0.0 0.0 25.00000000 62.50000000
        146        BPVAL METHA-01 GLYCEROL 0.0 547.8301000 .3000000000 0.0  &
        147            0.0 0.0 25.00000000 62.50000000
        148
        149    STREAM CAOIN
        150        SUBSTREAM MIXED TEMP=25. PRES=1. MOLE-FLOW=66. <mol/hr>
        151        MOLE-FRAC CALCI-01 1.
        152
        153    STREAM LAOIN
        154        SUBSTREAM MIXED TEMP=25. PRES=1. MASS-FLOW=2.
        155        MOLE-FRAC LANTH-01 1.
        156
        157    STREAM METHANOL
        158        SUBSTREAM MIXED TEMP=25. PRES=1. MOLE-FLOW=14536. <mol/hr>
        159        MOLE-FRAC METHA-01 1.
        160
        161    STREAM OILS
        162        SUBSTREAM MIXED TEMP=25. PRES=1. MOLE-FLOW=2200. <mol/hr>
        163        MOLE-FRAC TRIOL-01 0.6 / TRILI-01 0.4
        164
        165    STREAM UREAIN
        166        SUBSTREAM MIXED TEMP=25. PRES=1. MASS-FLOW=150.
        167        MOLE-FRAC UREA 1.
        168
        169    STREAM WATERCOO
        170        SUBSTREAM MIXED TEMP=25. PRES=1. MOLE-FLOW=225.
        171        MOLE-FRAC WATER 1.
        172
        173    BLOCK B1 MIXER
        174        PARAM PRES=1. NPHASE=1 PHASE=L TOL=0.01 T-EST=25.
        175        PROPERTIES IDEAL FREE-WATER=STEAM-TA SOLU-WATER=3  &
        176            TRUE-COMPS=YES
        177        BLOCK-OPTION FREE-WATER=NO
        178
        179    BLOCK B11 MIXER
        180        PARAM PRES=1.
        181
        182    BLOCK B17 MIXER
        183        PARAM PRES=1. NPHASE=1 PHASE=L
        184        PROPERTIES IDEAL FREE-WATER=STEAM-TA SOLU-WATER=3  &
        185            TRUE-COMPS=YES
        186        BLOCK-OPTION FREE-WATER=NO
        187
        188    BLOCK B18 MIXER
        189        PARAM
        190
        191    BLOCK B7 FSPLIT
        192        FRAC S3 0.99
        193
        194    BLOCK B10 HEATER
        195        PARAM TEMP=65. PRES=1. NPHASE=1 PHASE=L DPPARMOPT=NO
        196        BLOCK-OPTION FREE-WATER=NO
        197
        198    BLOCK B9 FLASH2
        199        PARAM TEMP=100. PRES=0.2 MAXIT=30
        200        PROPERTIES SR-POLAR FREE-WATER=STEAM-TA SOLU-WATER=3  &
        201            TRUE-COMPS=YES
        202
        203    BLOCK B13 FLASH2
        204        PARAM PRES=0.5 DUTY=0.
        205
        206    BLOCK B4 DECANTER
        207        PARAM TEMP=65. PRES=1. LL-METH=EQ-SOLVE L2-COMPS=METHA-01  &
        208            L2-CUTOFF=0.5 MAXIT=30
        209
        210    BLOCK B5 HEATX
        211        PARAM T-HOT=140. CALC-TYPE=DESIGN U-OPTION=PHASE  &
        212            F-OPTION=CONSTANT CALC-METHOD=SHORTCUT
        213        FEEDS HOT=S18 COLD=WATEROUT
        214        OUTLETS-HOT GLYCRE
        215        OUTLETS-COLD S12
        216        HOT-SIDE DP-OPTION=CONSTANT DPPARMOPT=NO
        217        COLD-SIDE DP-OPTION=CONSTANT DPPARMOPT=NO
        218        TQ-PARAM CURVE=YES
        219
        220    BLOCK B16 HEATX
        221        PARAM T-HOT=63. CALC-TYPE=DESIGN TYPE=COUNTERCURRE  &
        222            PRES-HOT=1. U-OPTION=PHASE F-OPTION=CONSTANT  &
        223            CALC-METHOD=SHORTCUT
        224        FEEDS HOT=S14 COLD=WATERCOO
        225        OUTLETS-HOT S20
        226        OUTLETS-COLD WATERHOT
        227        PROPERTIES NRTL FREE-WATER=STEAM-TA SOLU-WATER=3  &
        228            TRUE-COMPS=YES / STEAM-TA FREE-WATER=STEAM-TA  &
        229            SOLU-WATER=3 TRUE-COMPS=YES
        230        HOT-SIDE DP-OPTION=CONSTANT DPPARMOPT=NO
        231        COLD-SIDE DP-OPTION=CONSTANT DPPARMOPT=NO
        232        TQ-PARAM CURVE=YES
        233
        234    BLOCK B20 HEATX
        235        PARAM T-HOT=90. CALC-TYPE=DESIGN U-OPTION=PHASE  &
        236            F-OPTION=CONSTANT CALC-METHOD=SHORTCUT
        237        FEEDS HOT=HOTAMMO COLD=S12
        238        OUTLETS-HOT COLDAMMO
        239        OUTLETS-COLD S19
        240        HOT-SIDE DP-OPTION=CONSTANT DPPARMOPT=NO
        241        COLD-SIDE DP-OPTION=CONSTANT DPPARMOPT=NO
        242        TQ-PARAM CURVE=YES
        243
        244    BLOCK B21 HEATX
        245        PARAM T-HOT=90. CALC-TYPE=DESIGN U-OPTION=PHASE  &
        246            F-OPTION=CONSTANT CALC-METHOD=SHORTCUT
        247        FEEDS HOT=GCHOT2 COLD=S19
        248        OUTLETS-HOT GCPROD
        249        OUTLETS-COLD S24
        250        HOT-SIDE DP-OPTION=CONSTANT DPPARMOPT=NO
        251        COLD-SIDE DP-OPTION=CONSTANT DPPARMOPT=NO
        252        TQ-PARAM CURVE=YES
        253
        254    BLOCK B22 HEATX
        255        PARAM CALC-TYPE=SIMULATION AREA=10. U-OPTION=PHASE  &
        256            F-OPTION=CONSTANT CALC-METHOD=SHORTCUT
        257        FEEDS HOT=S24 COLD=BIO
        258        OUTLETS-HOT WASTEH2O
        259        OUTLETS-COLD S25
        260        HOT-SIDE DP-OPTION=CONSTANT DPPARMOPT=NO
        261        COLD-SIDE DP-OPTION=CONSTANT DPPARMOPT=NO
        262        TQ-PARAM CURVE=YES
        263
        264    BLOCK HEATX1 HEATX
        265        PARAM T-COLD=80. CALC-TYPE=DESIGN TYPE=COUNTERCURRE  &
        266            U-OPTION=PHASE F-OPTION=CONSTANT CALC-METHOD=SHORTCUT
        267        FEEDS HOT=WATERHOT COLD=S8
        268        OUTLETS-HOT WATEROUT
        269        OUTLETS-COLD S2
        270        PROPERTIES NRTL FREE-WATER=STEAM-TA SOLU-WATER=3  &
        271            TRUE-COMPS=YES / NRTL FREE-WATER=STEAM-TA SOLU-WATER=3  &
        272            TRUE-COMPS=YES
        273        HOT-SIDE DP-OPTION=CONSTANT DPPARMOPT=NO
        274        COLD-SIDE DP-OPTION=CONSTANT DPPARMOPT=NO
        275        TQ-PARAM CURVE=YES
        276
        277    BLOCK HEATX2 HEATX
        278        PARAM T-COLD=140. CALC-TYPE=DESIGN U-OPTION=PHASE  &
        279            F-OPTION=CONSTANT CALC-METHOD=SHORTCUT
        280        FEEDS HOT=GCHOT COLD=S9
        281        OUTLETS-HOT GCHOT2
        282        OUTLETS-COLD S10
        283        HOT-SIDE DP-OPTION=CONSTANT DPPARMOPT=NO
        284        COLD-SIDE DP-OPTION=CONSTANT DPPARMOPT=NO
        285        TQ-PARAM CURVE=YES
        286
        287    BLOCK B6 RADFRAC
        288        PARAM NSTAGE=3 ALGORITHM=NONIDEAL INIT-OPTION=STANDARD  &
        289            MAXOL=200 DAMPING=NONE
        290        COL-CONFIG CONDENSER=PARTIAL-V
        291        FEEDS S2 2 ABOVE-STAGE
        292        PRODUCTS BIO 3 L / METHOUT 1 V
        293        P-SPEC 1 1. / 2 1.
        294        COL-SPECS MASS-D:F=0.17 MASS-RR=3.
        295        DB:F-PARAMS STREAMS=S2
        296        PROPERTIES IDEAL FREE-WATER=STEAM-TA SOLU-WATER=3  &
        297            TRUE-COMPS=YES
        298
        299    BLOCK B14 RADFRAC
        300        PARAM NSTAGE=16 ALGORITHM=STANDARD MAXOL=25 DAMPING=NONE
        301        COL-CONFIG CONDENSER=PARTIAL-V
        302        FEEDS S21 10
        303        PRODUCTS S18 1 V / GCHOT 16 L
        304        P-SPEC 1 1.
        305        COL-SPECS MASS-D:F=0.18 MOLE-RR=3.
        306
        307    BLOCK B8 RSTOIC
        308        PARAM TEMP=140. PRES=3. <kPa>
        309        STOIC 1 MIXED GLYCEROL -1. / UREA -1. / AMMON-01 2. /  &
        310            GLYCE-01 1.
        311        CONV 1 MIXED GLYCEROL 0.85
        312
        313    HIERARCHY B2
        314
        315
        316    DEF-STREAMS CONVEN ALL
        317
        318    SOLVE
        319        PARAM METHOD=SM PROCESS=BATCH
        320        RUN-MODE MODE=SIM
        321
        322    FLOWSHEET
        323        BLOCK B1 IN=S1 OUT=S5
        324        BLOCK B2 IN=S4 CATIN OUT=S1
        325
        326    PROPERTIES SR-POLAR FREE-WATER=STEAM-TA SOLU-WATER=3  &
        327            TRUE-COMPS=YES
        328        PROPERTIES IDEAL / NRTL
        329
        330    BLOCK B2 MIXER
        331        PARAM PRES=1. NPHASE=1 PHASE=L
        332        PROPERTIES SR-POLAR FREE-WATER=STEAM-TA SOLU-WATER=3  &
        333            TRUE-COMPS=YES
        334        BLOCK-OPTION FREE-WATER=NO
        335
        336    BLOCK B1 BATCHOP
        337        PARAM TYPE=T-SPEC PRES=1. TEMP=65. NPHASE=1 PHASE=L
        338        INIT-COND FEED-TIME=1.
        339        DISCHARGE DISCHARGE-T=1.
        340        REACTIONS RXN-IDS=R-1 R-2
        341        BLOCK-OPTION FREE-WATER=NO
        342
        343    EO-CONV-OPTI
        344
        345    BATCH-OPTS
        346        PARAM MAX-TIME=6. OUTPUT-INT=0.05
        347
        348    ENDHIERARCHY B2
        349
        350    BLOCK B15 PUMP
        351        PARAM DELP=0.5
        352
        353    BLOCK B19 COMPR
        354        PARAM TYPE=ISENTROPIC DELP=0.8 NPHASE=2 SB-MAXIT=30  &
        355            SB-TOL=0.0001
        356        BLOCK-OPTION FREE-WATER=NO
        357
        358    BLOCK B3 CFUGE
        359        PARAM TYPE=SOLIDS-SEP NPHASE=2 PRES=1. DELT=0.
        360        SOLIDS-SEP SOLID-SPLIT=1. FLUID-SPLIT=1.
        361        PROPERTIES NRTL FREE-WATER=STEAM-TA SOLU-WATER=3  &
        362            TRUE-COMPS=YES
        363
        364    BLOCK B12 CFUGE
        365        PARAM TYPE=SOLIDS-SEP NPHASE=2 PRES=1.
        366        SOLIDS-SEP SOLID-SPLIT=1. FLUID-SPLIT=1.
        367
        368    EO-CONV-OPTI
        369
        370    STREAM-REPOR MOLEFLOW
        371
        372    PROPERTY-REP PCES
        373
        374    REACTIONS R-1 LHHW
        375        REAC-DATA 1
        376        RATE-CON 1 PRE-EXP=0.07 ACT-ENERGY=16.6 <kJ/mol>
        377        STOIC 1 MIXED TRIOL-01 -1. / METHA-01 -3. / METHY-01 3. / &
        378            GLYCEROL 1.
        379        DFORCE-EXP-1 1 MIXED TRIOL-01 1. / MIXED METHA-01 0. /  &
        380            MIXED METHY-01 0. / MIXED GLYCEROL 0.
        381        DFORCE-EQ-1 REACNO=1 A=0.
        382        DFORCE-EQ-2 REACNO=1 A=-52.95
        383
        384    REACTIONS R-2 LHHW
        385        REAC-DATA 1
        386        RATE-CON 1 PRE-EXP=0.07 ACT-ENERGY=16.6 <kJ/mol>
        387        STOIC 1 MIXED TRILI-01 -1. / METHA-01 -3. / GLYCEROL 1. / &
        388            METHY-02 3.
        389        DFORCE-EXP-1 1 MIXED TRILI-01 1. / MIXED METHA-01 0. /  &
        390            MIXED GLYCEROL 0. / MIXED METHY-02 0.
        391        DFORCE-EQ-1 REACNO=1 A=0.
        392        DFORCE-EQ-2 REACNO=1 A=-52.95
        393
        394    PROP-TABLE BINRY-2 PROPS
        395        IN-UNITS MET PRESSURE=bar TEMPERATURE=C DELTA-T=C PDROP=bar  &
        396            INVERSE-PRES='1/bar' SHORT-LENGTH=mm
        397        ANALYSIS ANAL-TYPE=GIBBS UNITS='cal/mol'
        398        PROPERTIES SR-POLAR FREE-WATER=STEAM-TA SOLU-WATER=3  &
        399            TRUE-COMPS=YES
        400        MOLE-FLOW GLYCEROL 1 /  METHY-01  1
        401        STATE PRES=1.
        402        VARY TEMP
        403        RANGE LIST=40.
        404        VARY MOLEFRAC COMP=GLYCEROL
        405        RANGE VARVALUE=RANGE LOWER=0.0 UPPER=1.0 NPOINT=50
        406        PARAM NPHASE=3
        407    ;
        408    ;
        409    ;
        410    ;
        411    ;
Added container block B2
 *** INPUT TRANSLATOR MESSAGES ***

  *** THIS RUN USES THE PROPERTIES ENTERPRISE DATABASE ***
      SQLLOCALDB.APESV100 : (DATAVERSION - 36.0.0.1)                          
      SQLLOCALDB.APV100 : (DATAVERSION - 36.0.0.21)                           
      SQLLOCALDB.FACTV100 : (DATAVERSION - 36.0.0.1)                          
      SQLLOCALDB.NISTV100 : (DATAVERSION - 36.0.0.15)                         

      INFORMATION IN PHYSICAL PROPERTY SYSTEM                  (PCERTE.10)      
      STRUCTURE FOR COMPONENT TRILI-01 HAS NOT BEEN DEFINED.                    
      PCES CANNOT USE GROUP-CONTRIBUTION METHODS TO ESTIMATE MISSING PROPERTIES.
      USE THE STRUCTURES PARAGRAPH TO DEFINE STRUCTURES OF THIS COMPONENT.      

      INFORMATION IN PHYSICAL PROPERTY SYSTEM                  (PCERTE.10)      
      STRUCTURE FOR COMPONENT UREA HAS NOT BEEN DEFINED.                        
      PCES CANNOT USE GROUP-CONTRIBUTION METHODS TO ESTIMATE MISSING PROPERTIES.
      USE THE STRUCTURES PARAGRAPH TO DEFINE STRUCTURES OF THIS COMPONENT.      

      INFORMATION IN PHYSICAL PROPERTY SYSTEM                  (PCERTE.10)      
      STRUCTURE FOR COMPONENT CALCI-01 HAS NOT BEEN DEFINED.                    
      PCES CANNOT USE GROUP-CONTRIBUTION METHODS TO ESTIMATE MISSING PROPERTIES.
      USE THE STRUCTURES PARAGRAPH TO DEFINE STRUCTURES OF THIS COMPONENT.      

      INFORMATION IN PHYSICAL PROPERTY SYSTEM                  (PCERTE.10)      
      STRUCTURE FOR COMPONENT LANTH-01 HAS NOT BEEN DEFINED.                    
      PCES CANNOT USE GROUP-CONTRIBUTION METHODS TO ESTIMATE MISSING PROPERTIES.
      USE THE STRUCTURES PARAGRAPH TO DEFINE STRUCTURES OF THIS COMPONENT.      

      INFORMATION IN PHYSICAL PROPERTY SYSTEM                  (PCERTE.10)      
      STRUCTURE FOR COMPONENT GLYCE-01 HAS NOT BEEN DEFINED.                    
      PCES CANNOT USE GROUP-CONTRIBUTION METHODS TO ESTIMATE MISSING PROPERTIES.
      USE THE STRUCTURES PARAGRAPH TO DEFINE STRUCTURES OF THIS COMPONENT.      

      INFORMATION IN PHYSICAL PROPERTY SYSTEM                  (LOADMW.5)       
      MW AVAILABLE FOR COMPONENT TRILI-01 IS DIFFERENT FROM MW                  
      CALCULATED FROM FORMULA (ATOMNO/NOATOM).  CALCULATED VALUE IS USED.       
      AVAILABLE MW =   879.3840     CALCULATED MW =   879.4015                  

  *   WARNING IN PHYSICAL PROPERTY SYSTEM                      (LCLIMS.4)       
      PARAMETER DHVLWT/ELEMENT  1 (DATA SET 1)                                  
      UPPER BOUND VIOLATED FOR COMPONENT CALCI-01                               
      VALUE =  0.22559E+10, UPPER BOUND =  0.60000E+09                          

  *   WARNING IN PHYSICAL PROPERTY SYSTEM                      (LCLIMS.4)       
      PARAMETER DHVLWT/ELEMENT  5 (DATA SET 1)                                  
      UPPER BOUND VIOLATED FOR COMPONENT CALCI-01                               
      VALUE =   3670.0    , UPPER BOUND =   1500.0                              

  *   WARNING WHILE CHECKING INPUT SPECIFICATIONS              (PRPCHK.1)       
      INCONSISTENT PROPERTIES DETECTED FOR 11 STREAMS                           
      (SEE CONTROL PANEL OR HISTORY FILE FOR FULL LIST)                         
      SOURCE BLOCK        PROPERTIES STREAM   DESTINATION BLOCK   PROPERTIES    
      =================== ========== ======== =================== ==========    
      B3                  NRTL       S6       B4                  SR-POLAR      
      B2.B1               SR-POLAR   S5       B3                  NRTL          
      HEATX1              NRTL       S2       B6                  IDEAL         
      B16                 STEAM-TA   WATERHOT HEATX1              NRTL          
      B4                  SR-POLAR   S8       HEATX1              NRTL          
      B16                 NRTL       S20      B17                 IDEAL         
      B18                 SR-POLAR   S14      B16                 NRTL          
      B17                 IDEAL      S1       B10                 SR-POLAR      
      B6                  IDEAL      METHOUT  B18                 SR-POLAR      
      HEATX1              NRTL       WATEROUT B5                  SR-POLAR      
      B6                  IDEAL      BIO      B22                 SR-POLAR      
 
 

 PDF updated                                                                      TIME =      8.67


 THE FOLLOWING PURE COMPONENT PARAMETERS ARE ESTIMATED FOR MODEL ESRKU:


 COMPONENT GLYCEROL
      POLAR PARAMETER RKUPP0 =    -0.065662
                      RKUPP1 =     3.433459
                      RKUPP2 =    -6.929989

 COMPONENT TRIOL-01
      POLAR PARAMETER RKUPP0 =     4.099804
                      RKUPP1 =    -3.004889
                      RKUPP2 =     2.162829

 COMPONENT TRILI-01
      POLAR PARAMETER RKUPP0 =     4.075085
                      RKUPP1 =    -3.003402
                      RKUPP2 =     2.160700

 COMPONENT METHA-01
      POLAR PARAMETER RKUPP0 =     0.162227
                      RKUPP1 =    -1.430134
                      RKUPP2 =     0.008900

 COMPONENT METHY-01
      POLAR PARAMETER RKUPP0 =    -0.028342
                      RKUPP1 =   -11.709490
                      RKUPP2 =    14.975620

 COMPONENT METHY-02
      POLAR PARAMETER RKUPP0 =     0.959016
                      RKUPP1 =    -2.964248
                      RKUPP2 =     2.123185

 COMPONENT UREA    
      POLAR PARAMETER RKUPP0 =    -0.323045
                      RKUPP1 =    -2.966432
                      RKUPP2 =     2.198500

 COMPONENT CALCI-01
      POLAR PARAMETER RKUPP0 =     0.711866
                      RKUPP1 =    -4.328770
                      RKUPP2 =    -5.480186

 COMPONENT LANTH-01
      POLAR PARAMETER RKUPP0 =     0.000000
                      RKUPP1 =     0.000000
                      RKUPP2 =     0.000000

 COMPONENT AMMON-01
      POLAR PARAMETER RKUPP0 =     0.036832
                      RKUPP1 =    -0.837919
                      RKUPP2 =    -0.809507

 COMPONENT GLYCE-01
      POLAR PARAMETER RKUPP0 =     0.000000
                      RKUPP1 =     0.000000
                      RKUPP2 =     0.000000

 COMPONENT NITROGEN
      POLAR PARAMETER RKUPP0 =     0.000000
                      RKUPP1 =     0.000000
                      RKUPP2 =     0.000000

 COMPONENT WATER   
      POLAR PARAMETER RKUPP0 =     0.065549
                      RKUPP1 =    -0.560763
                      RKUPP2 =    -1.260662

 THE FOLLOWING BINARY-INTERACTION PARAMETERS ARE ESTIMATED FOR MODEL ESRKU:


 BINARY GLYCEROL - TRIOL-01

      INTERACTION PARAMETERS NOT PREDICTED BECAUSE UNIFAC GENERATES VERY LOW OR HIGH PRESSURE DATA

 BINARY GLYCEROL - TRILI-01

      INTERACTION PARAMETERS NOT PREDICTED BECAUSE UNIFAC GROUP PARAMETERS ARE MISSING

 BINARY GLYCEROL - METHA-01
      RKUKA0 =   -0.121950    
      RKUKA2 =     23.8381    
      RKULA0 =    0.341113E-01
      RKULA2 =    -10.0315    

      FOR     298.15 (K) <= T <=    318.15 (K)


 BINARY GLYCEROL - METHY-01

      INTERACTION PARAMETERS NOT PREDICTED BECAUSE UNIFAC GENERATES VERY LOW OR HIGH PRESSURE DATA

 BINARY GLYCEROL - METHY-02

      INTERACTION PARAMETERS NOT PREDICTED BECAUSE UNIFAC GENERATES VERY LOW OR HIGH PRESSURE DATA

 BINARY GLYCEROL - UREA    

      INTERACTION PARAMETERS NOT PREDICTED BECAUSE UNIFAC GROUP PARAMETERS ARE MISSING

 BINARY GLYCEROL - CALCI-01

      INTERACTION PARAMETERS NOT PREDICTED BECAUSE UNIFAC GROUP PARAMETERS ARE MISSING

 BINARY GLYCEROL - LANTH-01

      INTERACTION PARAMETERS CANNOT BE PREDICTED USING UNIFAC

 BINARY GLYCEROL - GLYCE-01

      INTERACTION PARAMETERS NOT PREDICTED BECAUSE UNIFAC GROUP PARAMETERS ARE MISSING

 BINARY GLYCEROL - WATER   
      RKUKA0 =    0.603974E-02
      RKUKA2 =    -15.3785    
      RKULA0 =    0.789942E-02
      RKULA2 =    -2.78712    

      FOR     298.15 (K) <= T <=    318.15 (K)


 BINARY TRIOL-01 - TRILI-01

      INTERACTION PARAMETERS NOT PREDICTED BECAUSE UNIFAC GROUP PARAMETERS ARE MISSING

 BINARY TRIOL-01 - METHA-01

      INTERACTION PARAMETERS NOT PREDICTED BECAUSE UNIFAC GENERATES VERY LOW OR HIGH PRESSURE DATA

 BINARY TRIOL-01 - METHY-01

      INTERACTION PARAMETERS NOT PREDICTED BECAUSE UNIFAC GENERATES VERY LOW OR HIGH PRESSURE DATA

 BINARY TRIOL-01 - METHY-02

      INTERACTION PARAMETERS NOT PREDICTED BECAUSE UNIFAC GENERATES VERY LOW OR HIGH PRESSURE DATA

 BINARY TRIOL-01 - UREA    

      INTERACTION PARAMETERS NOT PREDICTED BECAUSE UNIFAC GROUP PARAMETERS ARE MISSING

 BINARY TRIOL-01 - CALCI-01

      INTERACTION PARAMETERS NOT PREDICTED BECAUSE UNIFAC GROUP PARAMETERS ARE MISSING

 BINARY TRIOL-01 - LANTH-01

      INTERACTION PARAMETERS NOT PREDICTED BECAUSE UNIFAC GROUP PARAMETERS ARE MISSING

 BINARY TRIOL-01 - GLYCE-01

      INTERACTION PARAMETERS NOT PREDICTED BECAUSE UNIFAC GROUP PARAMETERS ARE MISSING

 BINARY TRIOL-01 - WATER   

      INTERACTION PARAMETERS NOT PREDICTED BECAUSE UNIFAC GENERATES VERY LOW OR HIGH PRESSURE DATA

 BINARY TRILI-01 - METHA-01

      INTERACTION PARAMETERS NOT PREDICTED BECAUSE UNIFAC GROUP PARAMETERS ARE MISSING

 BINARY TRILI-01 - METHY-01

      INTERACTION PARAMETERS NOT PREDICTED BECAUSE UNIFAC GROUP PARAMETERS ARE MISSING

 BINARY TRILI-01 - METHY-02

      INTERACTION PARAMETERS NOT PREDICTED BECAUSE UNIFAC GROUP PARAMETERS ARE MISSING

 BINARY TRILI-01 - UREA    

      INTERACTION PARAMETERS NOT PREDICTED BECAUSE UNIFAC GROUP PARAMETERS ARE MISSING

 BINARY TRILI-01 - CALCI-01

      INTERACTION PARAMETERS NOT PREDICTED BECAUSE UNIFAC GROUP PARAMETERS ARE MISSING

 BINARY TRILI-01 - LANTH-01

      INTERACTION PARAMETERS NOT PREDICTED BECAUSE UNIFAC GROUP PARAMETERS ARE MISSING

 BINARY TRILI-01 - GLYCE-01

      INTERACTION PARAMETERS NOT PREDICTED BECAUSE UNIFAC GROUP PARAMETERS ARE MISSING

 BINARY TRILI-01 - WATER   

      INTERACTION PARAMETERS NOT PREDICTED BECAUSE UNIFAC GROUP PARAMETERS ARE MISSING

 BINARY METHA-01 - METHY-01
      RKUKA0 =   -0.597541E-01
      RKUKA2 =     2.71431    
      RKULA0 =   -0.139340E-01
      RKULA2 =    -11.3968    

      FOR     298.15 (K) <= T <=    318.15 (K)


 BINARY METHA-01 - METHY-02
      RKUKA0 =    0.153105E-01
      RKUKA2 =    -25.2241    
      RKULA0 =   -0.182201E-02
      RKULA2 =    -16.6520    

      FOR     298.15 (K) <= T <=    318.15 (K)


 BINARY METHA-01 - UREA    

      INTERACTION PARAMETERS NOT PREDICTED BECAUSE UNIFAC GROUP PARAMETERS ARE MISSING

 BINARY METHA-01 - CALCI-01

      INTERACTION PARAMETERS NOT PREDICTED BECAUSE UNIFAC GROUP PARAMETERS ARE MISSING

 BINARY METHA-01 - LANTH-01

      INTERACTION PARAMETERS CANNOT BE PREDICTED USING UNIFAC

 BINARY METHA-01 - GLYCE-01

      INTERACTION PARAMETERS NOT PREDICTED BECAUSE UNIFAC GROUP PARAMETERS ARE MISSING

 BINARY METHA-01 - WATER   
      RKUKA0 =   -0.553952E-01
      RKUKA2 =    -9.48761    
      RKULA0 =    0.171613E-01
      RKULA2 =    -3.75214    

      FOR     298.15 (K) <= T <=    318.15 (K)


 BINARY METHY-01 - METHY-02

      INTERACTION PARAMETERS NOT PREDICTED BECAUSE UNIFAC GENERATES VERY LOW OR HIGH PRESSURE DATA

 BINARY METHY-01 - UREA    

      INTERACTION PARAMETERS NOT PREDICTED BECAUSE UNIFAC GROUP PARAMETERS ARE MISSING

 BINARY METHY-01 - CALCI-01

      INTERACTION PARAMETERS NOT PREDICTED BECAUSE UNIFAC GROUP PARAMETERS ARE MISSING

 BINARY METHY-01 - LANTH-01

      INTERACTION PARAMETERS NOT PREDICTED BECAUSE UNIFAC GROUP PARAMETERS ARE MISSING

 BINARY METHY-01 - GLYCE-01

      INTERACTION PARAMETERS NOT PREDICTED BECAUSE UNIFAC GROUP PARAMETERS ARE MISSING

 BINARY METHY-01 - WATER   
      RKUKA0 =    0.111729    
      RKUKA2 =    -102.712    
      RKULA0 =    0.254424    
      RKULA2 =    -28.7397    

      FOR     298.15 (K) <= T <=    318.15 (K)


 BINARY METHY-02 - UREA    

      INTERACTION PARAMETERS NOT PREDICTED BECAUSE UNIFAC GROUP PARAMETERS ARE MISSING

 BINARY METHY-02 - CALCI-01

      INTERACTION PARAMETERS NOT PREDICTED BECAUSE UNIFAC GROUP PARAMETERS ARE MISSING

 BINARY METHY-02 - LANTH-01

      INTERACTION PARAMETERS NOT PREDICTED BECAUSE UNIFAC GROUP PARAMETERS ARE MISSING

 BINARY METHY-02 - GLYCE-01

      INTERACTION PARAMETERS NOT PREDICTED BECAUSE UNIFAC GROUP PARAMETERS ARE MISSING

 BINARY METHY-02 - WATER   
      RKUKA0 =   -0.292058    
      RKUKA2 =     12.7089    
      RKULA0 =    0.632576    
      RKULA2 =    -152.434    

      FOR     298.15 (K) <= T <=    318.15 (K)


 BINARY UREA     - CALCI-01

      INTERACTION PARAMETERS NOT PREDICTED BECAUSE UNIFAC GROUP PARAMETERS ARE MISSING

 BINARY UREA     - LANTH-01

      INTERACTION PARAMETERS CANNOT BE PREDICTED USING UNIFAC

 BINARY UREA     - GLYCE-01

      INTERACTION PARAMETERS NOT PREDICTED BECAUSE UNIFAC GROUP PARAMETERS ARE MISSING

 BINARY UREA     - WATER   

      INTERACTION PARAMETERS NOT PREDICTED BECAUSE UNIFAC GROUP PARAMETERS ARE MISSING

 BINARY CALCI-01 - LANTH-01

      INTERACTION PARAMETERS CANNOT BE PREDICTED USING UNIFAC

 BINARY CALCI-01 - GLYCE-01

      INTERACTION PARAMETERS NOT PREDICTED BECAUSE UNIFAC GROUP PARAMETERS ARE MISSING

 BINARY CALCI-01 - WATER   

      INTERACTION PARAMETERS NOT PREDICTED BECAUSE UNIFAC GROUP PARAMETERS ARE MISSING

 BINARY LANTH-01 - GLYCE-01

      INTERACTION PARAMETERS CANNOT BE PREDICTED USING UNIFAC

 BINARY LANTH-01 - WATER   

      INTERACTION PARAMETERS CANNOT BE PREDICTED USING UNIFAC

 BINARY GLYCE-01 - WATER   

      INTERACTION PARAMETERS NOT PREDICTED BECAUSE UNIFAC GROUP PARAMETERS ARE MISSING

 *** CALCULATION TRACE ***


 *** FLOWSHEET ANALYSIS MESSAGES ***

 FLOWSHEET CONNECTIVITY BY STREAMS       

 FLOWSHEET SECTION GLOBAL  
   STREAM     SOURCE     DEST           STREAM     SOURCE     DEST
   CAOIN      ----       $C-3           METHANOL   ----       B1      
   OILS       ----       B1             UREAIN     ----       B11     
   LAOIN      ----       B11            WATERCOO   ----       B16     
   S5         $C-2       B3             S8         B4         HEATX1  
   GLYCEROL   B4         B9             S6         B3         B4      
   CATOUT     B3         ----           S4         B1         B17     
   METHOUT    B6         B18            BIO        B6         B22     
   METHOUT2   B9         B7             S11        B9         B11     
   S13        B8         B12            S15        B12        B13     
   LAOOUT     B12        ----           HOTAMMO    B13        B20     
   S17        B13        B15            S18        B14        B5      
   GCHOT      B14        HEATX2         S21        B15        B14     
   WATEROUT   HEATX1     B5             S2         HEATX1     B6      
   S9         B11        HEATX2         GCHOT2     HEATX2     B21     
   S10        HEATX2     B8             S3         B7         B19     
   S7         B7         ----           S1         B17        B10     
   S20        B16        B17            WATERHOT   B16        HEATX1  
   S23        B19        B18            S16        B10        $C-1    
   S14        B18        B16            GLYCRE     B5         B11     
   S12        B5         B20            COLDAMMO   B20        ----    
   S19        B20        B21            GCPROD     B21        ----    
   S24        B21        B22            WASTEH2O   B22        ----    
   S25        B22        ----                                         

 FLOWSHEET CONNECTIVITY BY BLOCKS        

 FLOWSHEET SECTION GLOBAL  
   BLOCK        INLETS                         OUTLETS
   $C-1         S16                            S4                          
   $C-3         CAOIN                          CATIN                       
   $C-2         S5                             S5                          
   B4           S6                             S8 GLYCEROL                 
   B3           S5                             S6 CATOUT                   
   B1           OILS METHANOL                  S4                          
   B6           S2                             METHOUT BIO                 
   B9           GLYCEROL                       METHOUT2 S11                
   B8           S10                            S13                         
   B12          S13                            S15 LAOOUT                  
   B13          S15                            HOTAMMO S17                 
   B14          S21                            S18 GCHOT                   
   B15          S17                            S21                         
   HEATX1       WATERHOT S8                    WATEROUT S2                 
   B11          LAOIN UREAIN S11 GLYCRE        S9                          
   HEATX2       GCHOT S9                       GCHOT2 S10                  
   B7           METHOUT2                       S3 S7                       
   B17          S4 S20                         S1                          
   B16          S14 WATERCOO                   S20 WATERHOT                
   B19          S3                             S23                         
   B10          S1                             S16                         
   B18          S23 METHOUT                    S14                         
   B5           S18 WATEROUT                   GLYCRE S12                  
   B20          HOTAMMO S12                    COLDAMMO S19                
   B21          GCHOT2 S19                     GCPROD S24                  
   B22          S24 BIO                        WASTEH2O S25                

      BATCH CONVERGENCE BLOCK $BASVR01 HAS BEEN DEFINED

      BLOCK $OLVER02 (METHOD: WEGSTEIN) HAS BEEN DEFINED TO CONVERGE
               STREAMS: S14

      BLOCK $OLVER03 (METHOD: WEGSTEIN) HAS BEEN DEFINED TO CONVERGE
               STREAMS: S10

      COMPUTATION ORDER FOR THE FLOWSHEET IS:
      B1 $C-3 
      $OLVER02 B16 B17 B10 $C-1 
      |  B2.$BASVR01 B2.B2 B2.B1 
      |  (RETURN B2.$BASVR01) 
      |  $C-2 B3 B4 HEATX1 B6 B9 B7 B19 B18 
      (RETURN $OLVER02) 
      $OLVER03 B8 B12 B13 B15 B14 B5 B11 HEATX2 
      (RETURN $OLVER03) 
      B20 B21 B22 

Calculations begin                                                              time      0.78


 SIMULATION CALCULATIONS BEGIN                                                    TIME =      0.78

      ENTHALPY CALCULATION FOR INLET STREAM OILS OF BLOCK B1                      TIME =      0.78
      KODE = 2  NTRIAL =   3  T = 298.1500  P =  100000.      V =  0.00000      Q =  0.00000    

      ENTHALPY CALCULATION FOR INLET STREAM METHANOL OF BLOCK B1                  TIME =      0.78
      KODE = 2  NTRIAL =   1  T = 298.1500  P =  100000.      V =  0.00000      Q =  0.00000    

      UOS BLOCK B1       MODEL: MIXER                                             TIME =      0.78
      KODE = 1   NO. TEMP ITER =    1     TEMP =  298.150    
      KPHASE =    2 KODE =    1 T =  298.150     P =  100000.     Q =  0.00000    

      ENTHALPY CALCULATION FOR INLET STREAM CAOIN OF BLOCK $C-3                   TIME =      0.78
      KODE = 2   NO. TEMP ITER =    1     TEMP =  298.150    
      KPHASE =    3 KODE =    2 T =  298.150     P =  100000.     Q =  0.00000    

      UOS BLOCK $C-3     MODEL: DUPL                                              TIME =      0.78

      CONVERGENCE BLOCK $OLVER02  METHOD: WEGSTEIN                                TIME =      0.78
      ITER   0 For Tear Streams: S14

      ENTHALPY CALCULATION FOR INLET STREAM WATERCOO OF BLOCK B16                 TIME =      0.78
      KODE = 2  NTRIAL =   1  T = 298.1500  P =  100000.      V =  0.00000      Q =  0.00000    

      UOS BLOCK B16      MODEL: HEATX                                             TIME =      0.78

  *   WARNING WHILE EXECUTING UNIT OPERATIONS BLOCK: "B16" (MODEL: "HEATX")     
                                                               (UHE02I.1)       
      AT LEAST ONE FEED HAS ZERO FLOW                                           
      BLOCK BYPASSED                                                            

      UOS BLOCK B17      MODEL: MIXER                                             TIME =      0.78
      KODE = 1   NO. TEMP ITER =    4     TEMP =  298.150    
      KPHASE =    2 KODE =    1 T =  298.150     P =  100000.     Q =  0.00000    

      UOS BLOCK B10      MODEL: HEATER                                            TIME =      0.78
      KODE = 2   NO. TEMP ITER =    1     TEMP =  338.150    
      KPHASE =    2 KODE =    2 T =  338.150     P =  100000.     Q =  270229.    

      UOS BLOCK $C-1     MODEL: DUPL                                              TIME =      0.78

      Batch Convergence Block $BASVR01 Hierarchy: B2                              TIME =      0.78

  *   WARNING WHILE EXECUTING BATCH CONVERGENC BLOCK: "$BASVR01" IN "B2"        
                                                               (WRTVARIN.1)     
      No active unit procedure is detected. The simulation will run to          
      the maximum integration time of 6.000 HR                                  

      Start task machine for batch B2.$BASVR01
         # Tasks =    0 NVTEAR =    0 NVTASK =    0 NVVARG =    0

      UOS BLOCK B2       MODEL: MIXER        HIERARCHY: B2                        TIME =      1.63
      KODE = 1   NO. TEMP ITER =    5     TEMP =  338.092    
      KPHASE =    2 KODE =    1 T =  338.092     P =  100000.     Q =  0.00000    

      UOS BLOCK B1       MODEL: BATCHOP      HIERARCHY: B2                        TIME =      1.63

      UOS BLOCK B1       MODEL: BATCHOP      HIERARCHY: B2                        TIME =      1.64
      STREAM B2.S5 WILL BE FLASHED FOR PROPERTY CALCULATIONS.
      KODE = 2   NO. TEMP ITER =    1     TEMP =  338.092    
      KPHASE =    2 KODE =    2 T =  338.092     P =  100000.     Q =-1.551734E-08

      UOS BLOCK B1       MODEL: BATCHOP      HIERARCHY: B2                        TIME =      1.79

      Integrating from  0.0000     to 0.10000E-01 by 0.10000E-01 HR

      UOS BLOCK B2       MODEL: MIXER        HIERARCHY: B2                        TIME =      1.86
      KODE = 1   NO. TEMP ITER =    1     TEMP =  338.092    
      KPHASE =    2 KODE =    1 T =  338.092     P =  100000.     Q =  0.00000    

      UOS BLOCK B1       MODEL: BATCHOP      HIERARCHY: B2                        TIME =      1.86

      UOS BLOCK B1       MODEL: BATCHOP      HIERARCHY: B2                        TIME =      1.87

      Integrating from 0.10000E-01 to 0.20000E-01 by 0.10000E-01 HR

      UOS BLOCK B2       MODEL: MIXER        HIERARCHY: B2                        TIME =      1.87
      KODE = 1   NO. TEMP ITER =    1     TEMP =  338.092    
      KPHASE =    2 KODE =    1 T =  338.092     P =  100000.     Q =  0.00000    

      UOS BLOCK B1       MODEL: BATCHOP      HIERARCHY: B2                        TIME =      1.87

      UOS BLOCK B1       MODEL: BATCHOP      HIERARCHY: B2                        TIME =      1.87

      Integrating from 0.20000E-01 to 0.30000E-01 by 0.10000E-01 HR

      UOS BLOCK B2       MODEL: MIXER        HIERARCHY: B2                        TIME =      1.87
      KODE = 1   NO. TEMP ITER =    1     TEMP =  338.092    
      KPHASE =    2 KODE =    1 T =  338.092     P =  100000.     Q =  0.00000    

      UOS BLOCK B1       MODEL: BATCHOP      HIERARCHY: B2                        TIME =      1.87

      UOS BLOCK B1       MODEL: BATCHOP      HIERARCHY: B2                        TIME =      1.88

      Integrating from 0.30000E-01 to 0.40000E-01 by 0.10000E-01 HR

      UOS BLOCK B2       MODEL: MIXER        HIERARCHY: B2                        TIME =      1.88
      KODE = 1   NO. TEMP ITER =    1     TEMP =  338.092    
      KPHASE =    2 KODE =    1 T =  338.092     P =  100000.     Q =  0.00000    

      UOS BLOCK B1       MODEL: BATCHOP      HIERARCHY: B2                        TIME =      1.88

      UOS BLOCK B1       MODEL: BATCHOP      HIERARCHY: B2                        TIME =      1.88

      Integrating from 0.40000E-01 to 0.50000E-01 by 0.10000E-01 HR

      UOS BLOCK B2       MODEL: MIXER        HIERARCHY: B2                        TIME =      1.88
      KODE = 1   NO. TEMP ITER =    1     TEMP =  338.092    
      KPHASE =    2 KODE =    1 T =  338.092     P =  100000.     Q =  0.00000    

      UOS BLOCK B1       MODEL: BATCHOP      HIERARCHY: B2                        TIME =      1.88

      UOS BLOCK B1       MODEL: BATCHOP      HIERARCHY: B2                        TIME =      1.97

      Integrating from 0.50000E-01 to 0.60000E-01 by 0.10000E-01 HR

      UOS BLOCK B2       MODEL: MIXER        HIERARCHY: B2                        TIME =      2.04
      KODE = 1   NO. TEMP ITER =    1     TEMP =  338.092    
      KPHASE =    2 KODE =    1 T =  338.092     P =  100000.     Q =  0.00000    

      UOS BLOCK B1       MODEL: BATCHOP      HIERARCHY: B2                        TIME =      2.04

      UOS BLOCK B1       MODEL: BATCHOP      HIERARCHY: B2                        TIME =      2.04

      Integrating from 0.60000E-01 to 0.70000E-01 by 0.10000E-01 HR

      UOS BLOCK B2       MODEL: MIXER        HIERARCHY: B2                        TIME =      2.04
      KODE = 1   NO. TEMP ITER =    1     TEMP =  338.092    
      KPHASE =    2 KODE =    1 T =  338.092     P =  100000.     Q =  0.00000    

      UOS BLOCK B1       MODEL: BATCHOP      HIERARCHY: B2                        TIME =      2.04

      UOS BLOCK B1       MODEL: BATCHOP      HIERARCHY: B2                        TIME =      2.04

      Integrating from 0.70000E-01 to 0.80000E-01 by 0.10000E-01 HR

      UOS BLOCK B2       MODEL: MIXER        HIERARCHY: B2                        TIME =      2.04
      KODE = 1   NO. TEMP ITER =    1     TEMP =  338.092    
      KPHASE =    2 KODE =    1 T =  338.092     P =  100000.     Q =  0.00000    

      UOS BLOCK B1       MODEL: BATCHOP      HIERARCHY: B2                        TIME =      2.04

      UOS BLOCK B1       MODEL: BATCHOP      HIERARCHY: B2                        TIME =      2.04

      Integrating from 0.80000E-01 to 0.90000E-01 by 0.10000E-01 HR

      UOS BLOCK B2       MODEL: MIXER        HIERARCHY: B2                        TIME =      2.04
      KODE = 1   NO. TEMP ITER =    1     TEMP =  338.092    
      KPHASE =    2 KODE =    1 T =  338.092     P =  100000.     Q =  0.00000    

      UOS BLOCK B1       MODEL: BATCHOP      HIERARCHY: B2                        TIME =      2.04

      UOS BLOCK B1       MODEL: BATCHOP      HIERARCHY: B2                        TIME =      2.05

      Integrating from 0.90000E-01 to 0.10000     by 0.10000E-01 HR

      UOS BLOCK B2       MODEL: MIXER        HIERARCHY: B2                        TIME =      2.05
      KODE = 1   NO. TEMP ITER =    1     TEMP =  338.092    
      KPHASE =    2 KODE =    1 T =  338.092     P =  100000.     Q =  0.00000    

      UOS BLOCK B1       MODEL: BATCHOP      HIERARCHY: B2                        TIME =      2.05

      UOS BLOCK B1       MODEL: BATCHOP      HIERARCHY: B2                        TIME =      2.13

      Integrating from 0.10000     to 0.11000     by 0.10000E-01 HR

      UOS BLOCK B2       MODEL: MIXER        HIERARCHY: B2                        TIME =      2.19
      KODE = 1   NO. TEMP ITER =    1     TEMP =  338.092    
      KPHASE =    2 KODE =    1 T =  338.092     P =  100000.     Q =  0.00000    

      UOS BLOCK B1       MODEL: BATCHOP      HIERARCHY: B2                        TIME =      2.19

      UOS BLOCK B1       MODEL: BATCHOP      HIERARCHY: B2                        TIME =      2.19

      Integrating from 0.11000     to 0.12000     by 0.10000E-01 HR

      UOS BLOCK B2       MODEL: MIXER        HIERARCHY: B2                        TIME =      2.19
      KODE = 1   NO. TEMP ITER =    1     TEMP =  338.092    
      KPHASE =    2 KODE =    1 T =  338.092     P =  100000.     Q =  0.00000    

      UOS BLOCK B1       MODEL: BATCHOP      HIERARCHY: B2                        TIME =      2.19

      UOS BLOCK B1       MODEL: BATCHOP      HIERARCHY: B2                        TIME =      2.19

      Integrating from 0.12000     to 0.13000     by 0.10000E-01 HR

      UOS BLOCK B2       MODEL: MIXER        HIERARCHY: B2                        TIME =      2.19
      KODE = 1   NO. TEMP ITER =    1     TEMP =  338.092    
      KPHASE =    2 KODE =    1 T =  338.092     P =  100000.     Q =  0.00000    

      UOS BLOCK B1       MODEL: BATCHOP      HIERARCHY: B2                        TIME =      2.19

      UOS BLOCK B1       MODEL: BATCHOP      HIERARCHY: B2                        TIME =      2.19

      Integrating from 0.13000     to 0.14000     by 0.10000E-01 HR

      UOS BLOCK B2       MODEL: MIXER        HIERARCHY: B2                        TIME =      2.20
      KODE = 1   NO. TEMP ITER =    1     TEMP =  338.092    
      KPHASE =    2 KODE =    1 T =  338.092     P =  100000.     Q =  0.00000    

      UOS BLOCK B1       MODEL: BATCHOP      HIERARCHY: B2                        TIME =      2.20

      UOS BLOCK B1       MODEL: BATCHOP      HIERARCHY: B2                        TIME =      2.20

      Integrating from 0.14000     to 0.15000     by 0.10000E-01 HR

      UOS BLOCK B2       MODEL: MIXER        HIERARCHY: B2                        TIME =      2.20
      KODE = 1   NO. TEMP ITER =    1     TEMP =  338.092    
      KPHASE =    2 KODE =    1 T =  338.092     P =  100000.     Q =  0.00000    

      UOS BLOCK B1       MODEL: BATCHOP      HIERARCHY: B2                        TIME =      2.20

      UOS BLOCK B1       MODEL: BATCHOP      HIERARCHY: B2                        TIME =      2.28

      Integrating from 0.15000     to 0.16000     by 0.10000E-01 HR

      UOS BLOCK B2       MODEL: MIXER        HIERARCHY: B2                        TIME =      2.33
      KODE = 1   NO. TEMP ITER =    1     TEMP =  338.092    
      KPHASE =    2 KODE =    1 T =  338.092     P =  100000.     Q =  0.00000    

      UOS BLOCK B1       MODEL: BATCHOP      HIERARCHY: B2                        TIME =      2.34

      UOS BLOCK B1       MODEL: BATCHOP      HIERARCHY: B2                        TIME =      2.34

      Integrating from 0.16000     to 0.17000     by 0.10000E-01 HR

      UOS BLOCK B2       MODEL: MIXER        HIERARCHY: B2                        TIME =      2.34
      KODE = 1   NO. TEMP ITER =    1     TEMP =  338.092    
      KPHASE =    2 KODE =    1 T =  338.092     P =  100000.     Q =  0.00000    

      UOS BLOCK B1       MODEL: BATCHOP      HIERARCHY: B2                        TIME =      2.34

      UOS BLOCK B1       MODEL: BATCHOP      HIERARCHY: B2                        TIME =      2.34

      Integrating from 0.17000     to 0.18000     by 0.10000E-01 HR

      UOS BLOCK B2       MODEL: MIXER        HIERARCHY: B2                        TIME =      2.34
      KODE = 1   NO. TEMP ITER =    1     TEMP =  338.092    
      KPHASE =    2 KODE =    1 T =  338.092     P =  100000.     Q =  0.00000    

      UOS BLOCK B1       MODEL: BATCHOP      HIERARCHY: B2                        TIME =      2.34

      UOS BLOCK B1       MODEL: BATCHOP      HIERARCHY: B2                        TIME =      2.34

      Integrating from 0.18000     to 0.19000     by 0.10000E-01 HR

      UOS BLOCK B2       MODEL: MIXER        HIERARCHY: B2                        TIME =      2.34
      KODE = 1   NO. TEMP ITER =    1     TEMP =  338.092    
      KPHASE =    2 KODE =    1 T =  338.092     P =  100000.     Q =  0.00000    

      UOS BLOCK B1       MODEL: BATCHOP      HIERARCHY: B2                        TIME =      2.34

      UOS BLOCK B1       MODEL: BATCHOP      HIERARCHY: B2                        TIME =      2.34

      Integrating from 0.19000     to 0.20000     by 0.10000E-01 HR

      UOS BLOCK B2       MODEL: MIXER        HIERARCHY: B2                        TIME =      2.34
      KODE = 1   NO. TEMP ITER =    1     TEMP =  338.092    
      KPHASE =    2 KODE =    1 T =  338.092     P =  100000.     Q =  0.00000    

      UOS BLOCK B1       MODEL: BATCHOP      HIERARCHY: B2                        TIME =      2.34

      UOS BLOCK B1       MODEL: BATCHOP      HIERARCHY: B2                        TIME =      2.42

      Integrating from 0.20000     to 0.21000     by 0.10000E-01 HR

      UOS BLOCK B2       MODEL: MIXER        HIERARCHY: B2                        TIME =      2.48
      KODE = 1   NO. TEMP ITER =    1     TEMP =  338.092    
      KPHASE =    2 KODE =    1 T =  338.092     P =  100000.     Q =  0.00000    

      UOS BLOCK B1       MODEL: BATCHOP      HIERARCHY: B2                        TIME =      2.48

      UOS BLOCK B1       MODEL: BATCHOP      HIERARCHY: B2                        TIME =      2.48

      Integrating from 0.21000     to 0.22000     by 0.10000E-01 HR

      UOS BLOCK B2       MODEL: MIXER        HIERARCHY: B2                        TIME =      2.48
      KODE = 1   NO. TEMP ITER =    1     TEMP =  338.092    
      KPHASE =    2 KODE =    1 T =  338.092     P =  100000.     Q =  0.00000    

      UOS BLOCK B1       MODEL: BATCHOP      HIERARCHY: B2                        TIME =      2.48

      UOS BLOCK B1       MODEL: BATCHOP      HIERARCHY: B2                        TIME =      2.48

      Integrating from 0.22000     to 0.23000     by 0.10000E-01 HR

      UOS BLOCK B2       MODEL: MIXER        HIERARCHY: B2                        TIME =      2.48
      KODE = 1   NO. TEMP ITER =    1     TEMP =  338.092    
      KPHASE =    2 KODE =    1 T =  338.092     P =  100000.     Q =  0.00000    

      UOS BLOCK B1       MODEL: BATCHOP      HIERARCHY: B2                        TIME =      2.48

      UOS BLOCK B1       MODEL: BATCHOP      HIERARCHY: B2                        TIME =      2.48

      Integrating from 0.23000     to 0.24000     by 0.10000E-01 HR

      UOS BLOCK B2       MODEL: MIXER        HIERARCHY: B2                        TIME =      2.48
      KODE = 1   NO. TEMP ITER =    1     TEMP =  338.092    
      KPHASE =    2 KODE =    1 T =  338.092     P =  100000.     Q =  0.00000    

      UOS BLOCK B1       MODEL: BATCHOP      HIERARCHY: B2                        TIME =      2.48

      UOS BLOCK B1       MODEL: BATCHOP      HIERARCHY: B2                        TIME =      2.48

      Integrating from 0.24000     to 0.25000     by 0.10000E-01 HR

      UOS BLOCK B2       MODEL: MIXER        HIERARCHY: B2                        TIME =      2.48
      KODE = 1   NO. TEMP ITER =    1     TEMP =  338.092    
      KPHASE =    2 KODE =    1 T =  338.092     P =  100000.     Q =  0.00000    

      UOS BLOCK B1       MODEL: BATCHOP      HIERARCHY: B2                        TIME =      2.48

      UOS BLOCK B1       MODEL: BATCHOP      HIERARCHY: B2                        TIME =      2.54

      Integrating from 0.25000     to 0.26000     by 0.10000E-01 HR

      UOS BLOCK B2       MODEL: MIXER        HIERARCHY: B2                        TIME =      2.60
      KODE = 1   NO. TEMP ITER =    1     TEMP =  338.092    
      KPHASE =    2 KODE =    1 T =  338.092     P =  100000.     Q =  0.00000    

      UOS BLOCK B1       MODEL: BATCHOP      HIERARCHY: B2                        TIME =      2.60

      UOS BLOCK B1       MODEL: BATCHOP      HIERARCHY: B2                        TIME =      2.60

      Integrating from 0.26000     to 0.27000     by 0.10000E-01 HR

      UOS BLOCK B2       MODEL: MIXER        HIERARCHY: B2                        TIME =      2.60
      KODE = 1   NO. TEMP ITER =    1     TEMP =  338.092    
      KPHASE =    2 KODE =    1 T =  338.092     P =  100000.     Q =  0.00000    

      UOS BLOCK B1       MODEL: BATCHOP      HIERARCHY: B2                        TIME =      2.61

      UOS BLOCK B1       MODEL: BATCHOP      HIERARCHY: B2                        TIME =      2.61

      Integrating from 0.27000     to 0.28000     by 0.10000E-01 HR

      UOS BLOCK B2       MODEL: MIXER        HIERARCHY: B2                        TIME =      2.61
      KODE = 1   NO. TEMP ITER =    1     TEMP =  338.092    
      KPHASE =    2 KODE =    1 T =  338.092     P =  100000.     Q =  0.00000    

      UOS BLOCK B1       MODEL: BATCHOP      HIERARCHY: B2                        TIME =      2.61

      UOS BLOCK B1       MODEL: BATCHOP      HIERARCHY: B2                        TIME =      2.61

      Integrating from 0.28000     to 0.29000     by 0.10000E-01 HR

      UOS BLOCK B2       MODEL: MIXER        HIERARCHY: B2                        TIME =      2.61
      KODE = 1   NO. TEMP ITER =    1     TEMP =  338.092    
      KPHASE =    2 KODE =    1 T =  338.092     P =  100000.     Q =  0.00000    

      UOS BLOCK B1       MODEL: BATCHOP      HIERARCHY: B2                        TIME =      2.61

      UOS BLOCK B1       MODEL: BATCHOP      HIERARCHY: B2                        TIME =      2.61

      Integrating from 0.29000     to 0.30000     by 0.10000E-01 HR

      UOS BLOCK B2       MODEL: MIXER        HIERARCHY: B2                        TIME =      2.61
      KODE = 1   NO. TEMP ITER =    1     TEMP =  338.092    
      KPHASE =    2 KODE =    1 T =  338.092     P =  100000.     Q =  0.00000    

      UOS BLOCK B1       MODEL: BATCHOP      HIERARCHY: B2                        TIME =      2.61

      UOS BLOCK B1       MODEL: BATCHOP      HIERARCHY: B2                        TIME =      2.70

      Integrating from 0.30000     to 0.31000     by 0.10000E-01 HR

      UOS BLOCK B2       MODEL: MIXER        HIERARCHY: B2                        TIME =      2.76
      KODE = 1   NO. TEMP ITER =    1     TEMP =  338.092    
      KPHASE =    2 KODE =    1 T =  338.092     P =  100000.     Q =  0.00000    

      UOS BLOCK B1       MODEL: BATCHOP      HIERARCHY: B2                        TIME =      2.76

      UOS BLOCK B1       MODEL: BATCHOP      HIERARCHY: B2                        TIME =      2.76

      Integrating from 0.31000     to 0.32000     by 0.10000E-01 HR

      UOS BLOCK B2       MODEL: MIXER        HIERARCHY: B2                        TIME =      2.76
      KODE = 1   NO. TEMP ITER =    1     TEMP =  338.092    
      KPHASE =    2 KODE =    1 T =  338.092     P =  100000.     Q =  0.00000    

      UOS BLOCK B1       MODEL: BATCHOP      HIERARCHY: B2                        TIME =      2.76

      UOS BLOCK B1       MODEL: BATCHOP      HIERARCHY: B2                        TIME =      2.76

      Integrating from 0.32000     to 0.33000     by 0.10000E-01 HR

      UOS BLOCK B2       MODEL: MIXER        HIERARCHY: B2                        TIME =      2.76
      KODE = 1   NO. TEMP ITER =    1     TEMP =  338.092    
      KPHASE =    2 KODE =    1 T =  338.092     P =  100000.     Q =  0.00000    

      UOS BLOCK B1       MODEL: BATCHOP      HIERARCHY: B2                        TIME =      2.76

      UOS BLOCK B1       MODEL: BATCHOP      HIERARCHY: B2                        TIME =      2.76

      Integrating from 0.33000     to 0.34000     by 0.10000E-01 HR

      UOS BLOCK B2       MODEL: MIXER        HIERARCHY: B2                        TIME =      2.76
      KODE = 1   NO. TEMP ITER =    1     TEMP =  338.092    
      KPHASE =    2 KODE =    1 T =  338.092     P =  100000.     Q =  0.00000    

      UOS BLOCK B1       MODEL: BATCHOP      HIERARCHY: B2                        TIME =      2.76

      UOS BLOCK B1       MODEL: BATCHOP      HIERARCHY: B2                        TIME =      2.76

      Integrating from 0.34000     to 0.35000     by 0.10000E-01 HR

      UOS BLOCK B2       MODEL: MIXER        HIERARCHY: B2                        TIME =      2.76
      KODE = 1   NO. TEMP ITER =    1     TEMP =  338.092    
      KPHASE =    2 KODE =    1 T =  338.092     P =  100000.     Q =  0.00000    

      UOS BLOCK B1       MODEL: BATCHOP      HIERARCHY: B2                        TIME =      2.76

      UOS BLOCK B1       MODEL: BATCHOP      HIERARCHY: B2                        TIME =      2.86

      Integrating from 0.35000     to 0.36000     by 0.10000E-01 HR

      UOS BLOCK B2       MODEL: MIXER        HIERARCHY: B2                        TIME =      2.91
      KODE = 1   NO. TEMP ITER =    1     TEMP =  338.092    
      KPHASE =    2 KODE =    1 T =  338.092     P =  100000.     Q =  0.00000    

      UOS BLOCK B1       MODEL: BATCHOP      HIERARCHY: B2                        TIME =      2.91

      UOS BLOCK B1       MODEL: BATCHOP      HIERARCHY: B2                        TIME =      2.91

      Integrating from 0.36000     to 0.37000     by 0.10000E-01 HR

      UOS BLOCK B2       MODEL: MIXER        HIERARCHY: B2                        TIME =      2.91
      KODE = 1   NO. TEMP ITER =    1     TEMP =  338.092    
      KPHASE =    2 KODE =    1 T =  338.092     P =  100000.     Q =  0.00000    

      UOS BLOCK B1       MODEL: BATCHOP      HIERARCHY: B2                        TIME =      2.91

      UOS BLOCK B1       MODEL: BATCHOP      HIERARCHY: B2                        TIME =      2.91

      Integrating from 0.37000     to 0.38000     by 0.10000E-01 HR

      UOS BLOCK B2       MODEL: MIXER        HIERARCHY: B2                        TIME =      2.91
      KODE = 1   NO. TEMP ITER =    1     TEMP =  338.092    
      KPHASE =    2 KODE =    1 T =  338.092     P =  100000.     Q =  0.00000    

      UOS BLOCK B1       MODEL: BATCHOP      HIERARCHY: B2                        TIME =      2.91

      UOS BLOCK B1       MODEL: BATCHOP      HIERARCHY: B2                        TIME =      2.91

      Integrating from 0.38000     to 0.39000     by 0.10000E-01 HR

      UOS BLOCK B2       MODEL: MIXER        HIERARCHY: B2                        TIME =      2.91
      KODE = 1   NO. TEMP ITER =    1     TEMP =  338.092    
      KPHASE =    2 KODE =    1 T =  338.092     P =  100000.     Q =  0.00000    

      UOS BLOCK B1       MODEL: BATCHOP      HIERARCHY: B2                        TIME =      2.91

      UOS BLOCK B1       MODEL: BATCHOP      HIERARCHY: B2                        TIME =      2.92

      Integrating from 0.39000     to 0.40000     by 0.10000E-01 HR

      UOS BLOCK B2       MODEL: MIXER        HIERARCHY: B2                        TIME =      2.92
      KODE = 1   NO. TEMP ITER =    1     TEMP =  338.092    
      KPHASE =    2 KODE =    1 T =  338.092     P =  100000.     Q =  0.00000    

      UOS BLOCK B1       MODEL: BATCHOP      HIERARCHY: B2                        TIME =      2.92

      UOS BLOCK B1       MODEL: BATCHOP      HIERARCHY: B2                        TIME =      3.00

      Integrating from 0.40000     to 0.41000     by 0.10000E-01 HR

      UOS BLOCK B2       MODEL: MIXER        HIERARCHY: B2                        TIME =      3.05
      KODE = 1   NO. TEMP ITER =    1     TEMP =  338.092    
      KPHASE =    2 KODE =    1 T =  338.092     P =  100000.     Q =  0.00000    

      UOS BLOCK B1       MODEL: BATCHOP      HIERARCHY: B2                        TIME =      3.05

      UOS BLOCK B1       MODEL: BATCHOP      HIERARCHY: B2                        TIME =      3.05

      Integrating from 0.41000     to 0.42000     by 0.10000E-01 HR

      UOS BLOCK B2       MODEL: MIXER        HIERARCHY: B2                        TIME =      3.05
      KODE = 1   NO. TEMP ITER =    1     TEMP =  338.092    
      KPHASE =    2 KODE =    1 T =  338.092     P =  100000.     Q =  0.00000    

      UOS BLOCK B1       MODEL: BATCHOP      HIERARCHY: B2                        TIME =      3.05

      UOS BLOCK B1       MODEL: BATCHOP      HIERARCHY: B2                        TIME =      3.05

      Integrating from 0.42000     to 0.43000     by 0.10000E-01 HR

      UOS BLOCK B2       MODEL: MIXER        HIERARCHY: B2                        TIME =      3.05
      KODE = 1   NO. TEMP ITER =    1     TEMP =  338.092    
      KPHASE =    2 KODE =    1 T =  338.092     P =  100000.     Q =  0.00000    

      UOS BLOCK B1       MODEL: BATCHOP      HIERARCHY: B2                        TIME =      3.05

      UOS BLOCK B1       MODEL: BATCHOP      HIERARCHY: B2                        TIME =      3.05

      Integrating from 0.43000     to 0.44000     by 0.10000E-01 HR

      UOS BLOCK B2       MODEL: MIXER        HIERARCHY: B2                        TIME =      3.05
      KODE = 1   NO. TEMP ITER =    1     TEMP =  338.092    
      KPHASE =    2 KODE =    1 T =  338.092     P =  100000.     Q =  0.00000    

      UOS BLOCK B1       MODEL: BATCHOP      HIERARCHY: B2                        TIME =      3.05

      UOS BLOCK B1       MODEL: BATCHOP      HIERARCHY: B2                        TIME =      3.05

      Integrating from 0.44000     to 0.45000     by 0.10000E-01 HR

      UOS BLOCK B2       MODEL: MIXER        HIERARCHY: B2                        TIME =      3.05
      KODE = 1   NO. TEMP ITER =    1     TEMP =  338.092    
      KPHASE =    2 KODE =    1 T =  338.092     P =  100000.     Q =  0.00000    

      UOS BLOCK B1       MODEL: BATCHOP      HIERARCHY: B2                        TIME =      3.05

      UOS BLOCK B1       MODEL: BATCHOP      HIERARCHY: B2                        TIME =      3.16

      Integrating from 0.45000     to 0.46000     by 0.10000E-01 HR

      UOS BLOCK B2       MODEL: MIXER        HIERARCHY: B2                        TIME =      3.21
      KODE = 1   NO. TEMP ITER =    1     TEMP =  338.092    
      KPHASE =    2 KODE =    1 T =  338.092     P =  100000.     Q =  0.00000    

      UOS BLOCK B1       MODEL: BATCHOP      HIERARCHY: B2                        TIME =      3.21

      UOS BLOCK B1       MODEL: BATCHOP      HIERARCHY: B2                        TIME =      3.21

      Integrating from 0.46000     to 0.47000     by 0.10000E-01 HR

      UOS BLOCK B2       MODEL: MIXER        HIERARCHY: B2                        TIME =      3.21
      KODE = 1   NO. TEMP ITER =    1     TEMP =  338.092    
      KPHASE =    2 KODE =    1 T =  338.092     P =  100000.     Q =  0.00000    

      UOS BLOCK B1       MODEL: BATCHOP      HIERARCHY: B2                        TIME =      3.21

      UOS BLOCK B1       MODEL: BATCHOP      HIERARCHY: B2                        TIME =      3.21

      Integrating from 0.47000     to 0.48000     by 0.10000E-01 HR

      UOS BLOCK B2       MODEL: MIXER        HIERARCHY: B2                        TIME =      3.21
      KODE = 1   NO. TEMP ITER =    1     TEMP =  338.092    
      KPHASE =    2 KODE =    1 T =  338.092     P =  100000.     Q =  0.00000    

      UOS BLOCK B1       MODEL: BATCHOP      HIERARCHY: B2                        TIME =      3.21

      UOS BLOCK B1       MODEL: BATCHOP      HIERARCHY: B2                        TIME =      3.21

      Integrating from 0.48000     to 0.49000     by 0.10000E-01 HR

      UOS BLOCK B2       MODEL: MIXER        HIERARCHY: B2                        TIME =      3.21
      KODE = 1   NO. TEMP ITER =    1     TEMP =  338.092    
      KPHASE =    2 KODE =    1 T =  338.092     P =  100000.     Q =  0.00000    

      UOS BLOCK B1       MODEL: BATCHOP      HIERARCHY: B2                        TIME =      3.21

      UOS BLOCK B1       MODEL: BATCHOP      HIERARCHY: B2                        TIME =      3.21

      Integrating from 0.49000     to 0.50000     by 0.10000E-01 HR

      UOS BLOCK B2       MODEL: MIXER        HIERARCHY: B2                        TIME =      3.21
      KODE = 1   NO. TEMP ITER =    1     TEMP =  338.092    
      KPHASE =    2 KODE =    1 T =  338.092     P =  100000.     Q =  0.00000    

      UOS BLOCK B1       MODEL: BATCHOP      HIERARCHY: B2                        TIME =      3.21

      UOS BLOCK B1       MODEL: BATCHOP      HIERARCHY: B2                        TIME =      3.31

      Integrating from 0.50000     to 0.51000     by 0.10000E-01 HR

      UOS BLOCK B2       MODEL: MIXER        HIERARCHY: B2                        TIME =      3.35
      KODE = 1   NO. TEMP ITER =    1     TEMP =  338.092    
      KPHASE =    2 KODE =    1 T =  338.092     P =  100000.     Q =  0.00000    

      UOS BLOCK B1       MODEL: BATCHOP      HIERARCHY: B2                        TIME =      3.35

      UOS BLOCK B1       MODEL: BATCHOP      HIERARCHY: B2                        TIME =      3.35

      Integrating from 0.51000     to 0.52000     by 0.10000E-01 HR

      UOS BLOCK B2       MODEL: MIXER        HIERARCHY: B2                        TIME =      3.35
      KODE = 1   NO. TEMP ITER =    1     TEMP =  338.092    
      KPHASE =    2 KODE =    1 T =  338.092     P =  100000.     Q =  0.00000    

      UOS BLOCK B1       MODEL: BATCHOP      HIERARCHY: B2                        TIME =      3.35

      UOS BLOCK B1       MODEL: BATCHOP      HIERARCHY: B2                        TIME =      3.35

      Integrating from 0.52000     to 0.53000     by 0.10000E-01 HR

      UOS BLOCK B2       MODEL: MIXER        HIERARCHY: B2                        TIME =      3.35
      KODE = 1   NO. TEMP ITER =    1     TEMP =  338.092    
      KPHASE =    2 KODE =    1 T =  338.092     P =  100000.     Q =  0.00000    

      UOS BLOCK B1       MODEL: BATCHOP      HIERARCHY: B2                        TIME =      3.35

      UOS BLOCK B1       MODEL: BATCHOP      HIERARCHY: B2                        TIME =      3.35

      Integrating from 0.53000     to 0.54000     by 0.10000E-01 HR

      UOS BLOCK B2       MODEL: MIXER        HIERARCHY: B2                        TIME =      3.35
      KODE = 1   NO. TEMP ITER =    1     TEMP =  338.092    
      KPHASE =    2 KODE =    1 T =  338.092     P =  100000.     Q =  0.00000    

      UOS BLOCK B1       MODEL: BATCHOP      HIERARCHY: B2                        TIME =      3.36

      UOS BLOCK B1       MODEL: BATCHOP      HIERARCHY: B2                        TIME =      3.36

      Integrating from 0.54000     to 0.55000     by 0.10000E-01 HR

      UOS BLOCK B2       MODEL: MIXER        HIERARCHY: B2                        TIME =      3.36
      KODE = 1   NO. TEMP ITER =    1     TEMP =  338.092    
      KPHASE =    2 KODE =    1 T =  338.092     P =  100000.     Q =  0.00000    

      UOS BLOCK B1       MODEL: BATCHOP      HIERARCHY: B2                        TIME =      3.36

      UOS BLOCK B1       MODEL: BATCHOP      HIERARCHY: B2                        TIME =      3.46

      Integrating from 0.55000     to 0.56000     by 0.10000E-01 HR

      UOS BLOCK B2       MODEL: MIXER        HIERARCHY: B2                        TIME =      3.51
      KODE = 1   NO. TEMP ITER =    1     TEMP =  338.092    
      KPHASE =    2 KODE =    1 T =  338.092     P =  100000.     Q =  0.00000    

      UOS BLOCK B1       MODEL: BATCHOP      HIERARCHY: B2                        TIME =      3.51

      UOS BLOCK B1       MODEL: BATCHOP      HIERARCHY: B2                        TIME =      3.52

      Integrating from 0.56000     to 0.57000     by 0.10000E-01 HR

      UOS BLOCK B2       MODEL: MIXER        HIERARCHY: B2                        TIME =      3.52
      KODE = 1   NO. TEMP ITER =    1     TEMP =  338.092    
      KPHASE =    2 KODE =    1 T =  338.092     P =  100000.     Q =  0.00000    

      UOS BLOCK B1       MODEL: BATCHOP      HIERARCHY: B2                        TIME =      3.52

      UOS BLOCK B1       MODEL: BATCHOP      HIERARCHY: B2                        TIME =      3.52

      Integrating from 0.57000     to 0.58000     by 0.10000E-01 HR

      UOS BLOCK B2       MODEL: MIXER        HIERARCHY: B2                        TIME =      3.52
      KODE = 1   NO. TEMP ITER =    1     TEMP =  338.092    
      KPHASE =    2 KODE =    1 T =  338.092     P =  100000.     Q =  0.00000    

      UOS BLOCK B1       MODEL: BATCHOP      HIERARCHY: B2                        TIME =      3.52

      UOS BLOCK B1       MODEL: BATCHOP      HIERARCHY: B2                        TIME =      3.52

      Integrating from 0.58000     to 0.59000     by 0.10000E-01 HR

      UOS BLOCK B2       MODEL: MIXER        HIERARCHY: B2                        TIME =      3.52
      KODE = 1   NO. TEMP ITER =    1     TEMP =  338.092    
      KPHASE =    2 KODE =    1 T =  338.092     P =  100000.     Q =  0.00000    

      UOS BLOCK B1       MODEL: BATCHOP      HIERARCHY: B2                        TIME =      3.52

      UOS BLOCK B1       MODEL: BATCHOP      HIERARCHY: B2                        TIME =      3.52

      Integrating from 0.59000     to 0.60000     by 0.10000E-01 HR

      UOS BLOCK B2       MODEL: MIXER        HIERARCHY: B2                        TIME =      3.52
      KODE = 1   NO. TEMP ITER =    1     TEMP =  338.092    
      KPHASE =    2 KODE =    1 T =  338.092     P =  100000.     Q =  0.00000    

      UOS BLOCK B1       MODEL: BATCHOP      HIERARCHY: B2                        TIME =      3.52

      UOS BLOCK B1       MODEL: BATCHOP      HIERARCHY: B2                        TIME =      3.61

      Integrating from 0.60000     to 0.61000     by 0.10000E-01 HR

      UOS BLOCK B2       MODEL: MIXER        HIERARCHY: B2                        TIME =      3.67
      KODE = 1   NO. TEMP ITER =    1     TEMP =  338.092    
      KPHASE =    2 KODE =    1 T =  338.092     P =  100000.     Q =  0.00000    

      UOS BLOCK B1       MODEL: BATCHOP      HIERARCHY: B2                        TIME =      3.67

      UOS BLOCK B1       MODEL: BATCHOP      HIERARCHY: B2                        TIME =      3.67

      Integrating from 0.61000     to 0.62000     by 0.10000E-01 HR

      UOS BLOCK B2       MODEL: MIXER        HIERARCHY: B2                        TIME =      3.67
      KODE = 1   NO. TEMP ITER =    1     TEMP =  338.092    
      KPHASE =    2 KODE =    1 T =  338.092     P =  100000.     Q =  0.00000    

      UOS BLOCK B1       MODEL: BATCHOP      HIERARCHY: B2                        TIME =      3.67

      UOS BLOCK B1       MODEL: BATCHOP      HIERARCHY: B2                        TIME =      3.67

      Integrating from 0.62000     to 0.63000     by 0.10000E-01 HR

      UOS BLOCK B2       MODEL: MIXER        HIERARCHY: B2                        TIME =      3.67
      KODE = 1   NO. TEMP ITER =    1     TEMP =  338.092    
      KPHASE =    2 KODE =    1 T =  338.092     P =  100000.     Q =  0.00000    

      UOS BLOCK B1       MODEL: BATCHOP      HIERARCHY: B2                        TIME =      3.67

      UOS BLOCK B1       MODEL: BATCHOP      HIERARCHY: B2                        TIME =      3.67

      Integrating from 0.63000     to 0.64000     by 0.10000E-01 HR

      UOS BLOCK B2       MODEL: MIXER        HIERARCHY: B2                        TIME =      3.67
      KODE = 1   NO. TEMP ITER =    1     TEMP =  338.092    
      KPHASE =    2 KODE =    1 T =  338.092     P =  100000.     Q =  0.00000    

      UOS BLOCK B1       MODEL: BATCHOP      HIERARCHY: B2                        TIME =      3.67

      UOS BLOCK B1       MODEL: BATCHOP      HIERARCHY: B2                        TIME =      3.67

      Integrating from 0.64000     to 0.65000     by 0.10000E-01 HR

      UOS BLOCK B2       MODEL: MIXER        HIERARCHY: B2                        TIME =      3.67
      KODE = 1   NO. TEMP ITER =    1     TEMP =  338.092    
      KPHASE =    2 KODE =    1 T =  338.092     P =  100000.     Q =  0.00000    

      UOS BLOCK B1       MODEL: BATCHOP      HIERARCHY: B2                        TIME =      3.67

      UOS BLOCK B1       MODEL: BATCHOP      HIERARCHY: B2                        TIME =      3.77

      Integrating from 0.65000     to 0.66000     by 0.10000E-01 HR

      UOS BLOCK B2       MODEL: MIXER        HIERARCHY: B2                        TIME =      3.83
      KODE = 1   NO. TEMP ITER =    1     TEMP =  338.092    
      KPHASE =    2 KODE =    1 T =  338.092     P =  100000.     Q =  0.00000    

      UOS BLOCK B1       MODEL: BATCHOP      HIERARCHY: B2                        TIME =      3.83

      UOS BLOCK B1       MODEL: BATCHOP      HIERARCHY: B2                        TIME =      3.83

      Integrating from 0.66000     to 0.67000     by 0.10000E-01 HR

      UOS BLOCK B2       MODEL: MIXER        HIERARCHY: B2                        TIME =      3.83
      KODE = 1   NO. TEMP ITER =    1     TEMP =  338.092    
      KPHASE =    2 KODE =    1 T =  338.092     P =  100000.     Q =  0.00000    

      UOS BLOCK B1       MODEL: BATCHOP      HIERARCHY: B2                        TIME =      3.83

      UOS BLOCK B1       MODEL: BATCHOP      HIERARCHY: B2                        TIME =      3.83

      Integrating from 0.67000     to 0.68000     by 0.10000E-01 HR

      UOS BLOCK B2       MODEL: MIXER        HIERARCHY: B2                        TIME =      3.83
      KODE = 1   NO. TEMP ITER =    1     TEMP =  338.092    
      KPHASE =    2 KODE =    1 T =  338.092     P =  100000.     Q =  0.00000    

      UOS BLOCK B1       MODEL: BATCHOP      HIERARCHY: B2                        TIME =      3.83

      UOS BLOCK B1       MODEL: BATCHOP      HIERARCHY: B2                        TIME =      3.83

      Integrating from 0.68000     to 0.69000     by 0.10000E-01 HR

      UOS BLOCK B2       MODEL: MIXER        HIERARCHY: B2                        TIME =      3.83
      KODE = 1   NO. TEMP ITER =    1     TEMP =  338.092    
      KPHASE =    2 KODE =    1 T =  338.092     P =  100000.     Q =  0.00000    

      UOS BLOCK B1       MODEL: BATCHOP      HIERARCHY: B2                        TIME =      3.83

      UOS BLOCK B1       MODEL: BATCHOP      HIERARCHY: B2                        TIME =      3.83

      Integrating from 0.69000     to 0.70000     by 0.10000E-01 HR

      UOS BLOCK B2       MODEL: MIXER        HIERARCHY: B2                        TIME =      3.83
      KODE = 1   NO. TEMP ITER =    1     TEMP =  338.092    
      KPHASE =    2 KODE =    1 T =  338.092     P =  100000.     Q =  0.00000    

      UOS BLOCK B1       MODEL: BATCHOP      HIERARCHY: B2                        TIME =      3.83

      UOS BLOCK B1       MODEL: BATCHOP      HIERARCHY: B2                        TIME =      3.92

      Integrating from 0.70000     to 0.71000     by 0.10000E-01 HR

      UOS BLOCK B2       MODEL: MIXER        HIERARCHY: B2                        TIME =      3.96
      KODE = 1   NO. TEMP ITER =    1     TEMP =  338.092    
      KPHASE =    2 KODE =    1 T =  338.092     P =  100000.     Q =  0.00000    

      UOS BLOCK B1       MODEL: BATCHOP      HIERARCHY: B2                        TIME =      3.96

      UOS BLOCK B1       MODEL: BATCHOP      HIERARCHY: B2                        TIME =      3.96

      Integrating from 0.71000     to 0.72000     by 0.10000E-01 HR

      UOS BLOCK B2       MODEL: MIXER        HIERARCHY: B2                        TIME =      3.96
      KODE = 1   NO. TEMP ITER =    1     TEMP =  338.092    
      KPHASE =    2 KODE =    1 T =  338.092     P =  100000.     Q =  0.00000    

      UOS BLOCK B1       MODEL: BATCHOP      HIERARCHY: B2                        TIME =      3.97

      UOS BLOCK B1       MODEL: BATCHOP      HIERARCHY: B2                        TIME =      3.97

      Integrating from 0.72000     to 0.73000     by 0.10000E-01 HR

      UOS BLOCK B2       MODEL: MIXER        HIERARCHY: B2                        TIME =      3.97
      KODE = 1   NO. TEMP ITER =    1     TEMP =  338.092    
      KPHASE =    2 KODE =    1 T =  338.092     P =  100000.     Q =  0.00000    

      UOS BLOCK B1       MODEL: BATCHOP      HIERARCHY: B2                        TIME =      3.97

      UOS BLOCK B1       MODEL: BATCHOP      HIERARCHY: B2                        TIME =      3.97

      Integrating from 0.73000     to 0.74000     by 0.10000E-01 HR

      UOS BLOCK B2       MODEL: MIXER        HIERARCHY: B2                        TIME =      3.97
      KODE = 1   NO. TEMP ITER =    1     TEMP =  338.092    
      KPHASE =    2 KODE =    1 T =  338.092     P =  100000.     Q =  0.00000    

      UOS BLOCK B1       MODEL: BATCHOP      HIERARCHY: B2                        TIME =      3.97

      UOS BLOCK B1       MODEL: BATCHOP      HIERARCHY: B2                        TIME =      3.97

      Integrating from 0.74000     to 0.75000     by 0.10000E-01 HR

      UOS BLOCK B2       MODEL: MIXER        HIERARCHY: B2                        TIME =      3.97
      KODE = 1   NO. TEMP ITER =    1     TEMP =  338.092    
      KPHASE =    2 KODE =    1 T =  338.092     P =  100000.     Q =  0.00000    

[...]
      NO. TEMP ITER =    4     TEMP =  357.321    
      KODE = 1  NTRIAL =   2  T = 357.3206  P =  100000.      V =  0.00000      Q =  0.00000    
      NO. TEMP ITER =    4     TEMP =  356.835    
      KODE = 1  NTRIAL =   2  T = 356.8347  P =  100000.      V =  0.00000      Q =  0.00000    
      NO. TEMP ITER =    4     TEMP =  356.349    
      KODE = 1  NTRIAL =   2  T = 356.3489  P =  100000.      V =  0.00000      Q =  0.00000    
      NO. TEMP ITER =    4     TEMP =  355.863    
      KODE = 1  NTRIAL =   2  T = 355.8631  P =  100000.      V =  0.00000      Q =  0.00000    
      NO. TEMP ITER =    4     TEMP =  355.377    
      KODE = 1  NTRIAL =   2  T = 355.3773  P =  100000.      V =  0.00000      Q =  0.00000    
      NO. TEMP ITER =    4     TEMP =  354.892    
      KODE = 1  NTRIAL =   2  T = 354.8916  P =  100000.      V =  0.00000      Q =  0.00000    
      NO. TEMP ITER =    4     TEMP =  354.406    
      KODE = 1  NTRIAL =   2  T = 354.4059  P =  100000.      V =  0.00000      Q =  0.00000    
      NO. TEMP ITER =    4     TEMP =  353.920    
      KODE = 1  NTRIAL =   2  T = 353.9201  P =  100000.      V =  0.00000      Q =  0.00000    
      NO. TEMP ITER =    4     TEMP =  353.434    
      KODE = 1  NTRIAL =   2  T = 353.4345  P =  100000.      V =  0.00000      Q =  0.00000    
      NO. TEMP ITER =    4     TEMP =  352.949    
      KODE = 1  NTRIAL =   2  T = 352.9488  P =  100000.      V =  0.00000      Q =  0.00000    
      NO. TEMP ITER =    4     TEMP =  352.463    
      KODE = 1  NTRIAL =   2  T = 352.4632  P =  100000.      V =  0.00000      Q =  0.00000    
      NO. TEMP ITER =    4     TEMP =  351.978    
      KODE = 1  NTRIAL =   2  T = 351.9775  P =  100000.      V =  0.00000      Q =  0.00000    
      NO. TEMP ITER =    4     TEMP =  351.492    
      KODE = 1  NTRIAL =   2  T = 351.4920  P =  100000.      V =  0.00000      Q =  0.00000    
      NO. TEMP ITER =    4     TEMP =  351.006    
      KODE = 1  NTRIAL =   2  T = 351.0064  P =  100000.      V =  0.00000      Q =  0.00000    

      BEGIN COLD-TQCURVE INLET   

      BEGIN HOT-TQCURVE  INLET   
      END HEATX TQ-CURVE CALCULATIONS FOR BLOCK B22     
      STREAM CATOUT WILL BE FLASHED FOR PROPERTY CALCULATIONS.
      KODE = 1   NO. TEMP ITER =    1     TEMP =  338.151    
      KPHASE =    3 KODE =    1 T =  338.151     P =  100000.     Q =  0.00000    
      STREAM LAOOUT WILL BE FLASHED FOR PROPERTY CALCULATIONS.
      KODE = 1   NO. TEMP ITER =    3     TEMP =  443.755    
      KPHASE =    3 KODE =    1 T =  443.755     P =  100000.     Q =  0.00000    

      BEGIN HEATX TQ-CURVE REPORT FOR BLOCK B5      

      BEGIN COLD-TQCURVE INLET   

      BEGIN HOT-TQCURVE  INLET   
      END HEATX TQ-CURVE REPORT FOR BLOCK B5      

      BEGIN HEATX TQ-CURVE REPORT FOR BLOCK B22     

      BEGIN COLD-TQCURVE INLET   

      BEGIN HOT-TQCURVE  INLET   
      END HEATX TQ-CURVE REPORT FOR BLOCK B22     

      BEGIN HEATX TQ-CURVE REPORT FOR BLOCK B21     

      BEGIN COLD-TQCURVE INLET   

      BEGIN HOT-TQCURVE  INLET   
      END HEATX TQ-CURVE REPORT FOR BLOCK B21     

      BEGIN HEATX TQ-CURVE REPORT FOR BLOCK B20     

      BEGIN COLD-TQCURVE INLET   

      BEGIN HOT-TQCURVE  INLET   
      END HEATX TQ-CURVE REPORT FOR BLOCK B20     

      BEGIN HEATX TQ-CURVE REPORT FOR BLOCK B16     

      BEGIN COLD-TQCURVE INLET   

      BEGIN HOT-TQCURVE  INLET   
      END HEATX TQ-CURVE REPORT FOR BLOCK B16     


*** INPUT SPECIFICATION MESSAGES ***

 CHANGES WERE MADE TO BLOCK        B22      03/20/2020   03:20:20:91 
 BLOCK B22 HEATX
     PARAM CALC-TYPE=SIMULATION AREA=10. U-OPTION=PHASE  &
         F-OPTION=CONSTANT CALC-METHOD=SHORTCUT
     FEEDS HOT=S24 COLD=BIO
     OUTLETS-HOT WASTEH2O
     OUTLETS-COLD S25
     PROPERTIES NRTL FREE-WATER=STEAM-TA SOLU-WATER=3  &
         TRUE-COMPS=YES / NRTL FREE-WATER=STEAM-TA SOLU-WATER=3  &
         TRUE-COMPS=YES
     HOT-SIDE DP-OPTION=CONSTANT DPPARMOPT=NO
     COLD-SIDE DP-OPTION=CONSTANT DPPARMOPT=NO
     TQ-PARAM CURVE=YES

 PDF updated                                                                      TIME =    294.01
 THIS COPY OF ASPEN PLUS LICENSED TO RENSSELAER POLYTECHNIC I        


Calculations begin                                                              time    294.15


      UOS BLOCK B22      MODEL: HEATX                                             TIME =    294.15

  *   WARNING WHILE EXECUTING UNIT OPERATIONS BLOCK: "B22" (MODEL: "HEATX")     
                                                               (UHE02I.9)       
      CALCULATED FEED TEMPERATURE FOR THE HOT SIDE (3.5885903D+02)              
      IS INCONSISTENT WITH ITS INLET STREAM VALUE (3.6120771D+02)               
      PROBABLE CAUSE: LOOSE FLASH TOLERANCE, OR UPSTREAM BLOCK WITH DIFFERENT   
      PHASE SPECIFICATIONS OR PROPERTY METHOD. THE CALCULATED VALUE WILL BE     
      USED IN CALCULATIONS.                                                     
      SPECIFICATION: EXCHANGER AREA        10.000    
      FLOW TYPE:     COUNTERCURRENT  
      HOT:  TIN=  358.86  PIN=0.10000E+06   TOUT=  355.65  POUT=0.10000E+06
      COLD: TIN=  354.05  PIN=0.10000E+06   TOUT=  356.66  POUT=0.10000E+06
      AREA= 9.9905           DUTY= 16003.           FT=1.00000

      GENERATING RESULTS FOR UOS BLOCK B22      MODEL: HEATX                      TIME =    294.15

      BEGIN HEATX TQ-CURVE CALCULATIONS FOR BLOCK B22     

      BEGIN COLD-TQCURVE INLET   
      KODE = 1  NTRIAL =  13  T = 356.6632  P =  100000.      V = 9.205060E-02  Q =  0.00000    
      KODE = 1  NTRIAL =   4  T = 356.5239  P =  100000.      V = 8.781488E-02  Q =  0.00000    
      KODE = 1  NTRIAL =   4  T = 356.3862  P =  100000.      V = 8.356473E-02  Q =  0.00000    
      KODE = 1  NTRIAL =   4  T = 356.2501  P =  100000.      V = 7.930033E-02  Q =  0.00000    
      KODE = 1  NTRIAL =   4  T = 356.1155  P =  100000.      V = 7.502188E-02  Q =  0.00000    
      KODE = 1  NTRIAL =   4  T = 355.9826  P =  100000.      V = 7.072957E-02  Q =  0.00000    
      KODE = 1  NTRIAL =   4  T = 355.8511  P =  100000.      V = 6.642358E-02  Q =  0.00000    
      KODE = 1  NTRIAL =   4  T = 355.7211  P =  100000.      V = 6.210410E-02  Q =  0.00000    
      KODE = 1  NTRIAL =   4  T = 355.5927  P =  100000.      V = 5.777132E-02  Q =  0.00000    
      KODE = 1  NTRIAL =   4  T = 355.4657  P =  100000.      V = 5.342540E-02  Q =  0.00000    
      KODE = 1  NTRIAL =   4  T = 355.3401  P =  100000.      V = 4.906654E-02  Q =  0.00000    
      KODE = 1  NTRIAL =   4  T = 355.2160  P =  100000.      V = 4.469490E-02  Q =  0.00000    
      KODE = 1  NTRIAL =   4  T = 355.0933  P =  100000.      V = 4.031067E-02  Q =  0.00000    
      KODE = 1  NTRIAL =   4  T = 354.9720  P =  100000.      V = 3.591401E-02  Q =  0.00000    
      KODE = 1  NTRIAL =   4  T = 354.8520  P =  100000.      V = 3.150510E-02  Q =  0.00000    
      KODE = 1  NTRIAL =   4  T = 354.7334  P =  100000.      V = 2.708410E-02  Q =  0.00000    
      KODE = 1  NTRIAL =   4  T = 354.6161  P =  100000.      V = 2.265118E-02  Q =  0.00000    
      KODE = 1  NTRIAL =   4  T = 354.5002  P =  100000.      V = 1.820650E-02  Q =  0.00000    
      KODE = 1  NTRIAL =   4  T = 354.3856  P =  100000.      V = 1.375023E-02  Q =  0.00000    
      KODE = 1  NTRIAL =   4  T = 354.2722  P =  100000.      V = 9.282532E-03  Q =  0.00000    
      KODE = 1  NTRIAL =   4  T = 354.1601  P =  100000.      V = 4.803553E-03  Q =  0.00000    
      KODE = 1  NTRIAL =   4  T = 354.0492  P =  100000.      V = 3.134542E-04  Q =  0.00000    

      BEGIN HOT-TQCURVE  INLET   
      NO. TEMP ITER =    5     TEMP =  358.859    
      KODE = 1  NTRIAL =   2  T = 358.8590  P =  100000.      V =  0.00000      Q =  0.00000    
      NO. TEMP ITER =    5     TEMP =  358.707    
      KODE = 1  NTRIAL =   2  T = 358.7068  P =  100000.      V =  0.00000      Q =  0.00000    
      NO. TEMP ITER =    5     TEMP =  358.554    
      KODE = 1  NTRIAL =   2  T = 358.5545  P =  100000.      V =  0.00000      Q =  0.00000    
      NO. TEMP ITER =    5     TEMP =  358.402    
      KODE = 1  NTRIAL =   2  T = 358.4021  P =  100000.      V =  0.00000      Q =  0.00000    
      NO. TEMP ITER =    5     TEMP =  358.250    
      KODE = 1  NTRIAL =   2  T = 358.2497  P =  100000.      V =  0.00000      Q =  0.00000    
      NO. TEMP ITER =    5     TEMP =  358.097    
      KODE = 1  NTRIAL =   2  T = 358.0973  P =  100000.      V =  0.00000      Q =  0.00000    
      NO. TEMP ITER =    5     TEMP =  357.945    
      KODE = 1  NTRIAL =   2  T = 357.9448  P =  100000.      V =  0.00000      Q =  0.00000    
      NO. TEMP ITER =    5     TEMP =  357.792    
      KODE = 1  NTRIAL =   2  T = 357.7923  P =  100000.      V =  0.00000      Q =  0.00000    
      NO. TEMP ITER =    5     TEMP =  357.640    
      KODE = 1  NTRIAL =   2  T = 357.6398  P =  100000.      V =  0.00000      Q =  0.00000    
      NO. TEMP ITER =    5     TEMP =  357.487    
      KODE = 1  NTRIAL =   2  T = 357.4872  P =  100000.      V =  0.00000      Q =  0.00000    
      NO. TEMP ITER =    5     TEMP =  357.335    
      KODE = 1  NTRIAL =   2  T = 357.3346  P =  100000.      V =  0.00000      Q =  0.00000    
      NO. TEMP ITER =    5     TEMP =  357.182    
      KODE = 1  NTRIAL =   2  T = 357.1820  P =  100000.      V =  0.00000      Q =  0.00000    
      NO. TEMP ITER =    5     TEMP =  357.029    
      KODE = 1  NTRIAL =   2  T = 357.0293  P =  100000.      V =  0.00000      Q =  0.00000    
      NO. TEMP ITER =    5     TEMP =  356.877    
      KODE = 1  NTRIAL =   2  T = 356.8766  P =  100000.      V =  0.00000      Q =  0.00000    
      NO. TEMP ITER =    5     TEMP =  356.724    
      KODE = 1  NTRIAL =   2  T = 356.7238  P =  100000.      V =  0.00000      Q =  0.00000    
      NO. TEMP ITER =    5     TEMP =  356.571    
      KODE = 1  NTRIAL =   2  T = 356.5710  P =  100000.      V =  0.00000      Q =  0.00000    
      NO. TEMP ITER =    5     TEMP =  356.418    
      KODE = 1  NTRIAL =   2  T = 356.4182  P =  100000.      V =  0.00000      Q =  0.00000    
      NO. TEMP ITER =    5     TEMP =  356.265    
      KODE = 1  NTRIAL =   2  T = 356.2653  P =  100000.      V =  0.00000      Q =  0.00000    
      NO. TEMP ITER =    5     TEMP =  356.112    
      KODE = 1  NTRIAL =   2  T = 356.1124  P =  100000.      V =  0.00000      Q =  0.00000    
      NO. TEMP ITER =    5     TEMP =  355.959    
      KODE = 1  NTRIAL =   2  T = 355.9594  P =  100000.      V =  0.00000      Q =  0.00000    
      NO. TEMP ITER =    5     TEMP =  355.806    
      KODE = 1  NTRIAL =   2  T = 355.8064  P =  100000.      V =  0.00000      Q =  0.00000    
      NO. TEMP ITER =    5     TEMP =  355.653    
      KODE = 1  NTRIAL =   2  T = 355.6534  P =  100000.      V =  0.00000      Q =  0.00000    

      BEGIN COLD-TQCURVE INLET   

      BEGIN HOT-TQCURVE  INLET   
      END HEATX TQ-CURVE CALCULATIONS FOR BLOCK B22     
      STREAM CATOUT WILL BE FLASHED FOR PROPERTY CALCULATIONS.
      KODE = 1   NO. TEMP ITER =    1     TEMP =  338.151    
      KPHASE =    3 KODE =    1 T =  338.151     P =  100000.     Q =  0.00000    
      STREAM LAOOUT WILL BE FLASHED FOR PROPERTY CALCULATIONS.
      KODE = 1   NO. TEMP ITER =    3     TEMP =  443.755    
      KPHASE =    3 KODE =    1 T =  443.755     P =  100000.     Q =  0.00000    

      BEGIN HEATX TQ-CURVE REPORT FOR BLOCK B22     

      BEGIN COLD-TQCURVE INLET   

      BEGIN HOT-TQCURVE  INLET   
      END HEATX TQ-CURVE REPORT FOR BLOCK B22     


*** INPUT SPECIFICATION MESSAGES ***

 CHANGES WERE MADE TO BLOCK        B22      03/20/2020   03:21:01:07 
 BLOCK B22 HEATX
     PARAM CALC-TYPE=SIMULATION AREA=50. U-OPTION=PHASE  &
         F-OPTION=CONSTANT CALC-METHOD=SHORTCUT
     FEEDS HOT=S24 COLD=BIO
     OUTLETS-HOT WASTEH2O
     OUTLETS-COLD S25
     PROPERTIES NRTL FREE-WATER=STEAM-TA SOLU-WATER=3  &
         TRUE-COMPS=YES / NRTL FREE-WATER=STEAM-TA SOLU-WATER=3  &
         TRUE-COMPS=YES
     HOT-SIDE DP-OPTION=CONSTANT DPPARMOPT=NO
     COLD-SIDE DP-OPTION=CONSTANT DPPARMOPT=NO
     TQ-PARAM CURVE=YES

 PDF updated                                                                      TIME =    334.16
 THIS COPY OF ASPEN PLUS LICENSED TO RENSSELAER POLYTECHNIC I        


Calculations begin                                                              time    334.25


      UOS BLOCK B22      MODEL: HEATX                                             TIME =    334.25

  *   WARNING WHILE EXECUTING UNIT OPERATIONS BLOCK: "B22" (MODEL: "HEATX")     
                                                               (UHE02I.9)       
      CALCULATED FEED TEMPERATURE FOR THE HOT SIDE (3.5885903D+02)              
      IS INCONSISTENT WITH ITS INLET STREAM VALUE (3.6120771D+02)               
      PROBABLE CAUSE: LOOSE FLASH TOLERANCE, OR UPSTREAM BLOCK WITH DIFFERENT   
      PHASE SPECIFICATIONS OR PROPERTY METHOD. THE CALCULATED VALUE WILL BE     
      USED IN CALCULATIONS.                                                     
      SPECIFICATION: EXCHANGER AREA        50.000    
      FLOW TYPE:     COUNTERCURRENT  

  *   WARNING WHILE EXECUTING UNIT OPERATIONS BLOCK: "B22" (MODEL: "HEATX")     
                                                               (HEATX.1)        
      UNABLE TO MEET AREA SPEC - MINIMUM APPROACH TEMPERATURE REACHED           
      CALCULATED AREA IS LESS THAN SPECIFIED AREA                               
      HOT:  TIN=  358.86  PIN=0.10000E+06   TOUT=  355.05  POUT=0.10000E+06
      COLD: TIN=  354.05  PIN=0.10000E+06   TOUT=  357.23  POUT=0.10000E+06
      AREA= 17.345           DUTY= 19010.           FT=1.00000

      GENERATING RESULTS FOR UOS BLOCK B22      MODEL: HEATX                      TIME =    334.26

      BEGIN HEATX TQ-CURVE CALCULATIONS FOR BLOCK B22     

      BEGIN COLD-TQCURVE INLET   
      KODE = 1  NTRIAL =  13  T = 357.2289  P =  100000.      V = 0.108620      Q =  0.00000    
      KODE = 1  NTRIAL =   5  T = 357.0559  P =  100000.      V = 0.103656      Q =  0.00000    
      KODE = 1  NTRIAL =   5  T = 356.8852  P =  100000.      V = 9.867148E-02  Q =  0.00000    
      KODE = 1  NTRIAL =   5  T = 356.7168  P =  100000.      V = 9.366561E-02  Q =  0.00000    
      KODE = 1  NTRIAL =   5  T = 356.5508  P =  100000.      V = 8.863899E-02  Q =  0.00000    
      KODE = 1  NTRIAL =   4  T = 356.3871  P =  100000.      V = 8.359197E-02  Q =  0.00000    
      KODE = 1  NTRIAL =   4  T = 356.2256  P =  100000.      V = 7.852482E-02  Q =  0.00000    
      KODE = 1  NTRIAL =   4  T = 356.0662  P =  100000.      V = 7.343790E-02  Q =  0.00000    
      KODE = 1  NTRIAL =   4  T = 355.9091  P =  100000.      V = 6.833151E-02  Q =  0.00000    
      KODE = 1  NTRIAL =   4  T = 355.7541  P =  100000.      V = 6.320597E-02  Q =  0.00000    
      KODE = 1  NTRIAL =   4  T = 355.6012  P =  100000.      V = 5.806159E-02  Q =  0.00000    
      KODE = 1  NTRIAL =   4  T = 355.4504  P =  100000.      V = 5.289866E-02  Q =  0.00000    
      KODE = 1  NTRIAL =   4  T = 355.3016  P =  100000.      V = 4.771749E-02  Q =  0.00000    
      KODE = 1  NTRIAL =   4  T = 355.1549  P =  100000.      V = 4.251838E-02  Q =  0.00000    
      KODE = 1  NTRIAL =   4  T = 355.0101  P =  100000.      V = 3.730161E-02  Q =  0.00000    
      KODE = 1  NTRIAL =   4  T = 354.8672  P =  100000.      V = 3.206747E-02  Q =  0.00000    
      KODE = 1  NTRIAL =   4  T = 354.7263  P =  100000.      V = 2.681624E-02  Q =  0.00000    
      KODE = 1  NTRIAL =   4  T = 354.5872  P =  100000.      V = 2.154821E-02  Q =  0.00000    
      KODE = 1  NTRIAL =   4  T = 354.4500  P =  100000.      V = 1.626365E-02  Q =  0.00000    
      KODE = 1  NTRIAL =   4  T = 354.3146  P =  100000.      V = 1.096283E-02  Q =  0.00000    
      KODE = 1  NTRIAL =   4  T = 354.1811  P =  100000.      V = 5.646010E-03  Q =  0.00000    
      KODE = 1  NTRIAL =   4  T = 354.0492  P =  100000.      V = 3.134596E-04  Q =  0.00000    

      BEGIN HOT-TQCURVE  INLET   
      NO. TEMP ITER =    5     TEMP =  358.859    
      KODE = 1  NTRIAL =   2  T = 358.8590  P =  100000.      V =  0.00000      Q =  0.00000    
      NO. TEMP ITER =    5     TEMP =  358.678    
      KODE = 1  NTRIAL =   2  T = 358.6781  P =  100000.      V =  0.00000      Q =  0.00000    
      NO. TEMP ITER =    5     TEMP =  358.497    
      KODE = 1  NTRIAL =   2  T = 358.4972  P =  100000.      V =  0.00000      Q =  0.00000    
      NO. TEMP ITER =    5     TEMP =  358.316    
      KODE = 1  NTRIAL =   2  T = 358.3162  P =  100000.      V =  0.00000      Q =  0.00000    
      NO. TEMP ITER =    5     TEMP =  358.135    
      KODE = 1  NTRIAL =   2  T = 358.1352  P =  100000.      V =  0.00000      Q =  0.00000    
      NO. TEMP ITER =    5     TEMP =  357.954    
      KODE = 1  NTRIAL =   2  T = 357.9541  P =  100000.      V =  0.00000      Q =  0.00000    
      NO. TEMP ITER =    5     TEMP =  357.773    
      KODE = 1  NTRIAL =   2  T = 357.7729  P =  100000.      V =  0.00000      Q =  0.00000    
      NO. TEMP ITER =    5     TEMP =  357.592    
      KODE = 1  NTRIAL =   2  T = 357.5917  P =  100000.      V =  0.00000      Q =  0.00000    
      NO. TEMP ITER =    5     TEMP =  357.410    
      KODE = 1  NTRIAL =   2  T = 357.4104  P =  100000.      V =  0.00000      Q =  0.00000    
      NO. TEMP ITER =    5     TEMP =  357.229    
      KODE = 1  NTRIAL =   2  T = 357.2291  P =  100000.      V =  0.00000      Q =  0.00000    
      NO. TEMP ITER =    5     TEMP =  357.048    
      KODE = 1  NTRIAL =   2  T = 357.0478  P =  100000.      V =  0.00000      Q =  0.00000    
      NO. TEMP ITER =    5     TEMP =  356.866    
      KODE = 1  NTRIAL =   2  T = 356.8663  P =  100000.      V =  0.00000      Q =  0.00000    
      NO. TEMP ITER =    5     TEMP =  356.685    
      KODE = 1  NTRIAL =   2  T = 356.6849  P =  100000.      V =  0.00000      Q =  0.00000    
      NO. TEMP ITER =    5     TEMP =  356.503    
      KODE = 1  NTRIAL =   2  T = 356.5033  P =  100000.      V =  0.00000      Q =  0.00000    
      NO. TEMP ITER =    5     TEMP =  356.322    
      KODE = 1  NTRIAL =   2  T = 356.3218  P =  100000.      V =  0.00000      Q =  0.00000    
      NO. TEMP ITER =    5     TEMP =  356.140    
      KODE = 1  NTRIAL =   2  T = 356.1401  P =  100000.      V =  0.00000      Q =  0.00000    
      NO. TEMP ITER =    5     TEMP =  355.958    
      KODE = 1  NTRIAL =   2  T = 355.9585  P =  100000.      V =  0.00000      Q =  0.00000    
      NO. TEMP ITER =    5     TEMP =  355.777    
      KODE = 1  NTRIAL =   2  T = 355.7767  P =  100000.      V =  0.00000      Q =  0.00000    
      NO. TEMP ITER =    5     TEMP =  355.595    
      KODE = 1  NTRIAL =   2  T = 355.5949  P =  100000.      V =  0.00000      Q =  0.00000    
      NO. TEMP ITER =    5     TEMP =  355.413    
      KODE = 1  NTRIAL =   2  T = 355.4131  P =  100000.      V =  0.00000      Q =  0.00000    
      NO. TEMP ITER =    5     TEMP =  355.231    
      KODE = 1  NTRIAL =   2  T = 355.2312  P =  100000.      V =  0.00000      Q =  0.00000    
      NO. TEMP ITER =    5     TEMP =  355.049    
      KODE = 1  NTRIAL =   2  T = 355.0492  P =  100000.      V =  0.00000      Q =  0.00000    

      BEGIN COLD-TQCURVE INLET   

      BEGIN HOT-TQCURVE  INLET   
      END HEATX TQ-CURVE CALCULATIONS FOR BLOCK B22     
      STREAM CATOUT WILL BE FLASHED FOR PROPERTY CALCULATIONS.
      KODE = 1   NO. TEMP ITER =    1     TEMP =  338.151    
      KPHASE =    3 KODE =    1 T =  338.151     P =  100000.     Q =  0.00000    
      STREAM LAOOUT WILL BE FLASHED FOR PROPERTY CALCULATIONS.
      KODE = 1   NO. TEMP ITER =    3     TEMP =  443.755    
      KPHASE =    3 KODE =    1 T =  443.755     P =  100000.     Q =  0.00000    
